<?xml version="1.0" encoding="UTF-8"?>

<!-- generated on 2022-11-03 13:14:09 by Eclipse SUMO netedit Version 1.14.1
<configuration xmlns:xsi="http://www.w3.org/2001/XMLSchema-instance" xsi:noNamespaceSchemaLocation="http://sumo.dlr.de/xsd/netconvertConfiguration.xsd">

    <input>
        <sumo-net-file value="1200012n.net.xml"/>
    </input>

    <output>
        <output-file value="1200012n.net.xml"/>
        <output.street-names value="true"/>
    </output>

    <processing>
        <geometry.min-radius.fix.railways value="false"/>
        <geometry.max-grade.fix value="false"/>
        <offset.disable-normalization value="true"/>
        <lefthand value="false"/>
    </processing>

    <building_defaults>
        <default.spreadtype value="roadCenter"/>
    </building_defaults>

    <junctions>
        <no-turnarounds value="true"/>
        <junctions.corner-detail value="5"/>
        <junctions.limit-turn-speed value="5.5"/>
        <rectangular-lane-cut value="false"/>
    </junctions>

    <pedestrian>
        <walkingareas value="false"/>
    </pedestrian>

</configuration>
-->

<net version="1.9" spreadType="roadCenter" junctionCornerDetail="5" limitTurnSpeed="5.50" xmlns:xsi="http://www.w3.org/2001/XMLSchema-instance" xsi:noNamespaceSchemaLocation="http://sumo.dlr.de/xsd/net_file.xsd">

    <location netOffset="-300248.30,-4148110.73" convBoundary="114.70,3929.88,2764.40,5742.20" origBoundary="126.740004,37.459737,126.829462,37.545163" projParameter="+proj=utm +zone=52 +ellps=WGS84 +datum=WGS84 +units=m +no_defs"/>

    <type id="476603127_01_type" numLanes="1" speed="13.89"/>
    <type id="476603128_01_type" numLanes="4" speed="27.78"/>
    <type id="476603130_01_type" numLanes="4" speed="16.67"/>
    <type id="476603132_01_type" numLanes="4" speed="16.67"/>
    <type id="476603133_01_type" numLanes="4" speed="16.67"/>
    <type id="476603134_01_type" numLanes="5" speed="16.67"/>
    <type id="476603146_01_01_type" numLanes="3" speed="11.11"/>
    <type id="476603146_02_01_type" numLanes="2" speed="11.11"/>
    <type id="476603147_01_type" numLanes="2" speed="11.11"/>
    <type id="476603148_01_type" numLanes="4" speed="16.67"/>
    <type id="476607745_01_type" numLanes="1" speed="13.89"/>
    <type id="476607746_01_type" numLanes="1" speed="11.11"/>
    <type id="476611486_01_type" numLanes="1" speed="13.89"/>
    <type id="476611486_02_type" numLanes="1" speed="13.89"/>
    <type id="476611487_01_type" numLanes="1" speed="13.89"/>
    <type id="476611487_02_type" numLanes="1" speed="13.89"/>
    <type id="476611488_01_type" numLanes="1" speed="13.89"/>
    <type id="476611488_02_type" numLanes="1" speed="13.89"/>
    <type id="476611489_01_type" numLanes="1" speed="13.89"/>
    <type id="476611489_02_type" numLanes="1" speed="13.89"/>
    <type id="476611491_01_type" numLanes="1" speed="13.89"/>
    <type id="476611491_02_type" numLanes="1" speed="13.89"/>
    <type id="476611492_01_type" numLanes="1" speed="13.89"/>
    <type id="476611492_02_type" numLanes="1" speed="13.89"/>
    <type id="476611493_01_type" numLanes="1" speed="13.89"/>
    <type id="476611493_02_type" numLanes="1" speed="13.89"/>
    <type id="476611496_01_type" numLanes="2" speed="13.89"/>
    <type id="476611496_02_type" numLanes="2" speed="13.89"/>
    <type id="476611497_01_type" numLanes="2" speed="13.89"/>
    <type id="476611497_02_type" numLanes="2" speed="13.89"/>
    <type id="476611499_01_type" numLanes="1" speed="13.89"/>
    <type id="476611499_02_type" numLanes="1" speed="13.89"/>
    <type id="476611500_01_type" numLanes="1" speed="13.89"/>
    <type id="476611500_02_type" numLanes="1" speed="13.89"/>
    <type id="476611502_01_type" numLanes="1" speed="13.89"/>
    <type id="476611502_02_type" numLanes="1" speed="13.89"/>
    <type id="476611503_01_type" numLanes="1" speed="13.89"/>
    <type id="476611503_02_type" numLanes="1" speed="13.89"/>
    <type id="476611505_01_type" numLanes="1" speed="13.89"/>
    <type id="476611505_02_type" numLanes="1" speed="13.89"/>
    <type id="476611510_01_type" numLanes="1" speed="13.89"/>
    <type id="476611510_02_type" numLanes="1" speed="13.89"/>
    <type id="476611511_01_type" numLanes="1" speed="13.89"/>
    <type id="476611511_02_type" numLanes="1" speed="13.89"/>
    <type id="476611512_01_type" numLanes="1" speed="13.89"/>
    <type id="476611512_02_type" numLanes="1" speed="13.89"/>
    <type id="476611513_01_type" numLanes="1" speed="13.89"/>
    <type id="476611513_02_type" numLanes="1" speed="13.89"/>
    <type id="476611514_01_type" numLanes="2" speed="13.89"/>
    <type id="476611514_02_type" numLanes="2" speed="13.89"/>
    <type id="476611515_01_type" numLanes="1" speed="13.89"/>
    <type id="476611515_02_type" numLanes="1" speed="13.89"/>
    <type id="476611516_01_type" numLanes="1" speed="13.89"/>
    <type id="476611516_02_type" numLanes="1" speed="13.89"/>
    <type id="476611517_01_type" numLanes="2" speed="13.89"/>
    <type id="476611517_02_type" numLanes="2" speed="13.89"/>
    <type id="476611518_01_type" numLanes="1" speed="13.89"/>
    <type id="476611518_02_type" numLanes="1" speed="13.89"/>
    <type id="476611519_01_type" numLanes="1" speed="13.89"/>
    <type id="476611519_02_type" numLanes="1" speed="13.89"/>
    <type id="476611520_01_type" numLanes="2" speed="13.89"/>
    <type id="476611520_02_type" numLanes="2" speed="13.89"/>
    <type id="476611521_01_type" numLanes="2" speed="13.89"/>
    <type id="476611521_02_type" numLanes="2" speed="13.89"/>
    <type id="476611522_01_type" numLanes="3" speed="16.67"/>
    <type id="476611522_02_type" numLanes="3" speed="16.67"/>
    <type id="476611526_01_type" numLanes="2" speed="13.89"/>
    <type id="476611526_02_type" numLanes="2" speed="13.89"/>
    <type id="476611527_01_type" numLanes="1" speed="13.89"/>
    <type id="476611527_02_type" numLanes="1" speed="13.89"/>
    <type id="476611530_01_type" numLanes="1" speed="13.89"/>
    <type id="476611530_02_type" numLanes="1" speed="13.89"/>
    <type id="476611531_01_type" numLanes="1" speed="13.89"/>
    <type id="476611531_02_type" numLanes="1" speed="13.89"/>
    <type id="476611532_01_type" numLanes="1" speed="13.89"/>
    <type id="476611532_02_type" numLanes="1" speed="13.89"/>
    <type id="476611533_01_type" numLanes="1" speed="13.89"/>
    <type id="476611533_02_type" numLanes="1" speed="13.89"/>
    <type id="476611534_01_type" numLanes="1" speed="13.89"/>
    <type id="476611534_02_type" numLanes="1" speed="13.89"/>
    <type id="476611535_01_type" numLanes="1" speed="13.89"/>
    <type id="476611535_02_type" numLanes="1" speed="13.89"/>
    <type id="476611536_01_type" numLanes="1" speed="13.89"/>
    <type id="476611536_02_type" numLanes="1" speed="13.89"/>
    <type id="476611537_01_type" numLanes="1" speed="13.89"/>
    <type id="476611537_02_type" numLanes="1" speed="13.89"/>
    <type id="476611538_01_type" numLanes="1" speed="13.89"/>
    <type id="476611538_02_type" numLanes="1" speed="13.89"/>
    <type id="476611539_01_type" numLanes="1" speed="13.89"/>
    <type id="476611539_02_type" numLanes="1" speed="13.89"/>
    <type id="476611541_01_type" numLanes="2" speed="13.89"/>
    <type id="476611541_02_type" numLanes="2" speed="13.89"/>
    <type id="476611542_01_type" numLanes="2" speed="13.89"/>
    <type id="476611542_02_type" numLanes="2" speed="13.89"/>
    <type id="476611543_01_type" numLanes="2" speed="13.89"/>
    <type id="476611543_02_type" numLanes="2" speed="13.89"/>
    <type id="476611546_01_type" numLanes="2" speed="13.89"/>
    <type id="476611546_02_type" numLanes="2" speed="13.89"/>
    <type id="476611548_01_type" numLanes="1" speed="13.89"/>
    <type id="476611548_02_type" numLanes="1" speed="13.89"/>
    <type id="476611549_01_type" numLanes="1" speed="13.89"/>
    <type id="476611549_02_type" numLanes="1" speed="13.89"/>
    <type id="476611550_01_type" numLanes="1" speed="13.89"/>
    <type id="476611550_02_type" numLanes="1" speed="13.89"/>
    <type id="476611551_01_type" numLanes="1" speed="13.89"/>
    <type id="476611551_02_type" numLanes="1" speed="13.89"/>
    <type id="476611552_01_type" numLanes="1" speed="13.89"/>
    <type id="476611552_02_type" numLanes="1" speed="13.89"/>
    <type id="476611553_01_type" numLanes="1" speed="13.89"/>
    <type id="476611553_02_type" numLanes="1" speed="13.89"/>
    <type id="476611554_01_type" numLanes="1" speed="13.89"/>
    <type id="476611554_02_type" numLanes="1" speed="13.89"/>
    <type id="476611555_01_type" numLanes="1" speed="13.89"/>
    <type id="476611555_02_type" numLanes="1" speed="13.89"/>
    <type id="476611556_01_type" numLanes="1" speed="13.89"/>
    <type id="476611556_02_type" numLanes="1" speed="13.89"/>
    <type id="476611557_01_type" numLanes="1" speed="13.89"/>
    <type id="476611557_02_type" numLanes="1" speed="13.89"/>
    <type id="476611558_01_type" numLanes="2" speed="13.89"/>
    <type id="476611558_02_type" numLanes="2" speed="13.89"/>
    <type id="476611559_01_type" numLanes="2" speed="13.89"/>
    <type id="476611559_02_type" numLanes="2" speed="13.89"/>
    <type id="476611561_01_type" numLanes="2" speed="13.89"/>
    <type id="476611561_02_type" numLanes="2" speed="13.89"/>
    <type id="476611562_01_type" numLanes="2" speed="13.89"/>
    <type id="476611563_01_type" numLanes="2" speed="13.89"/>
    <type id="476611564_01_01_type" numLanes="2" speed="13.89"/>
    <type id="476611564_0201_01_type" numLanes="3" speed="13.89"/>
    <type id="476611564_020201_01_type" numLanes="2" speed="13.89"/>
    <type id="476611564_020202_01_type" numLanes="3" speed="13.89"/>
    <type id="476611565_01_01_type" numLanes="2" speed="13.89"/>
    <type id="476611565_0201_01_type" numLanes="3" speed="13.89"/>
    <type id="476611565_0202_01_type" numLanes="2" speed="13.89"/>
    <type id="476611566_01_type" numLanes="2" speed="13.89"/>
    <type id="476611566_02_type" numLanes="2" speed="13.89"/>
    <type id="476611567_01_type" numLanes="2" speed="13.89"/>
    <type id="476611567_02_type" numLanes="2" speed="13.89"/>
    <type id="476611568_01_type" numLanes="2" speed="13.89"/>
    <type id="476611568_02_type" numLanes="2" speed="13.89"/>
    <type id="476611569_01_type" numLanes="3" speed="16.67"/>
    <type id="476611569_02_type" numLanes="3" speed="16.67"/>
    <type id="476611570_01_type" numLanes="1" speed="13.89"/>
    <type id="476611570_02_type" numLanes="1" speed="13.89"/>
    <type id="476611571_01_type" numLanes="1" speed="13.89"/>
    <type id="476611571_02_type" numLanes="1" speed="13.89"/>
    <type id="476611574_01_type" numLanes="2" speed="8.33"/>
    <type id="476611574_02_type" numLanes="2" speed="8.33"/>
    <type id="476611575_01_type" numLanes="2" speed="13.89"/>
    <type id="476611576_01_type" numLanes="2" speed="13.89"/>
    <type id="476611576_02_type" numLanes="2" speed="13.89"/>
    <type id="476611671_01_type" numLanes="3" speed="16.67"/>
    <type id="476611671_02_type" numLanes="3" speed="16.67"/>
    <type id="476611672_01_type" numLanes="3" speed="16.67"/>
    <type id="476611672_02_type" numLanes="3" speed="16.67"/>
    <type id="476611747_01_type" numLanes="3" speed="13.89"/>
    <type id="476611747_02_type" numLanes="3" speed="13.89"/>
    <type id="476611749_01_01_type" numLanes="3" speed="13.89"/>
    <type id="476611749_01_02_type" numLanes="3" speed="13.89"/>
    <type id="476611749_0201_01_type" numLanes="4" speed="13.89"/>
    <type id="476611749_0201_02_type" numLanes="3" speed="13.89"/>
    <type id="476611749_0202_01_type" numLanes="4" speed="13.89"/>
    <type id="476611749_0202_02_type" numLanes="4" speed="13.89"/>
    <type id="476611791_01_type" numLanes="1" speed="13.89"/>
    <type id="476611791_02_type" numLanes="1" speed="13.89"/>
    <type id="476611792_01_type" numLanes="1" speed="13.89"/>
    <type id="476611792_02_type" numLanes="1" speed="13.89"/>
    <type id="476611889_01_type" numLanes="1" speed="13.89"/>
    <type id="476611889_02_type" numLanes="1" speed="13.89"/>
    <type id="476611890_01_type" numLanes="1" speed="13.89"/>
    <type id="476611890_02_type" numLanes="1" speed="13.89"/>
    <type id="476611891_01_type" numLanes="1" speed="13.89"/>
    <type id="476611891_02_type" numLanes="1" speed="13.89"/>
    <type id="476611894_01_type" numLanes="1" speed="13.89"/>
    <type id="476611894_02_type" numLanes="1" speed="13.89"/>
    <type id="476611895_01_type" numLanes="1" speed="13.89"/>
    <type id="476611895_02_type" numLanes="1" speed="13.89"/>
    <type id="476611896_01_type" numLanes="1" speed="13.89"/>
    <type id="476611896_02_type" numLanes="1" speed="13.89"/>
    <type id="476611897_01_type" numLanes="1" speed="13.89"/>
    <type id="476611897_02_type" numLanes="1" speed="13.89"/>
    <type id="476611898_01_type" numLanes="1" speed="13.89"/>
    <type id="476611898_02_type" numLanes="1" speed="13.89"/>
    <type id="476611899_01_type" numLanes="1" speed="11.11"/>
    <type id="476611899_02_type" numLanes="1" speed="11.11"/>
    <type id="476611900_01_type" numLanes="1" speed="11.11"/>
    <type id="476611900_02_type" numLanes="1" speed="11.11"/>
    <type id="476611903_01_type" numLanes="1" speed="13.89"/>
    <type id="476611903_02_type" numLanes="1" speed="13.89"/>
    <type id="476611904_01_type" numLanes="1" speed="13.89"/>
    <type id="476611904_02_type" numLanes="1" speed="13.89"/>
    <type id="476611905_01_type" numLanes="1" speed="13.89"/>
    <type id="476611905_02_type" numLanes="1" speed="13.89"/>
    <type id="476611906_01_type" numLanes="1" speed="13.89"/>
    <type id="476611906_02_type" numLanes="1" speed="13.89"/>
    <type id="476611907_01_type" numLanes="1" speed="13.89"/>
    <type id="476611907_02_type" numLanes="1" speed="13.89"/>
    <type id="476611908_01_type" numLanes="1" speed="13.89"/>
    <type id="476611908_02_type" numLanes="1" speed="13.89"/>
    <type id="476611910_01_type" numLanes="1" speed="13.89"/>
    <type id="476611910_02_type" numLanes="1" speed="13.89"/>
    <type id="476611912_01_type" numLanes="1" speed="13.89"/>
    <type id="476611912_02_type" numLanes="1" speed="13.89"/>
    <type id="476611942_01_type" numLanes="1" speed="13.89"/>
    <type id="476611942_02_type" numLanes="1" speed="13.89"/>
    <type id="476611981_01_type" numLanes="1" speed="13.89"/>
    <type id="476611981_02_type" numLanes="1" speed="13.89"/>
    <type id="476611982_01_type" numLanes="1" speed="13.89"/>
    <type id="476611982_02_type" numLanes="1" speed="13.89"/>
    <type id="476611983_01_type" numLanes="1" speed="13.89"/>
    <type id="476611983_02_type" numLanes="1" speed="13.89"/>
    <type id="476612293_01_type" numLanes="2" speed="13.89"/>
    <type id="476612293_02_type" numLanes="2" speed="13.89"/>
    <type id="476612544_01_type" numLanes="1" speed="13.89"/>
    <type id="476612544_02_type" numLanes="1" speed="13.89"/>
    <type id="476612545_01_type" numLanes="2" speed="13.89"/>
    <type id="476612545_02_type" numLanes="2" speed="13.89"/>
    <type id="476612546_01_type" numLanes="2" speed="13.89"/>
    <type id="476612546_02_type" numLanes="2" speed="13.89"/>
    <type id="476612548_01_type" numLanes="2" speed="13.89"/>
    <type id="476612548_02_type" numLanes="2" speed="13.89"/>
    <type id="476612577_01_type" numLanes="1" speed="13.89"/>
    <type id="476612577_02_type" numLanes="1" speed="13.89"/>
    <type id="476612579_01_type" numLanes="1" speed="11.11"/>
    <type id="476612579_02_type" numLanes="1" speed="11.11"/>
    <type id="476612580_01_type" numLanes="1" speed="13.89"/>
    <type id="476612580_02_type" numLanes="1" speed="13.89"/>
    <type id="476614008_01_01_type" numLanes="3" speed="13.89"/>
    <type id="476614008_0201_01_type" numLanes="2" speed="13.89"/>
    <type id="476614008_0202_01_type" numLanes="3" speed="13.89"/>
    <type id="476616204_01_type" numLanes="1" speed="13.89"/>
    <type id="476616204_02_type" numLanes="1" speed="13.89"/>
    <type id="476616205_01_type" numLanes="1" speed="13.89"/>
    <type id="476616205_02_type" numLanes="1" speed="13.89"/>
    <type id="476616208_01_type" numLanes="1" speed="13.89"/>
    <type id="476616208_02_type" numLanes="1" speed="13.89"/>
    <type id="476617009_01_type" numLanes="1" speed="13.89"/>
    <type id="476617009_02_type" numLanes="1" speed="13.89"/>
    <type id="476617012_01_type" numLanes="3" speed="11.11"/>
    <type id="476617012_02_type" numLanes="2" speed="11.11"/>
    <type id="476617266_01_type" numLanes="1" speed="13.89"/>
    <type id="476617266_02_type" numLanes="1" speed="13.89"/>
    <type id="476617267_01_type" numLanes="1" speed="11.11"/>
    <type id="476617267_02_type" numLanes="1" speed="11.11"/>
    <type id="476617268_01_type" numLanes="1" speed="11.11"/>
    <type id="476617268_02_type" numLanes="1" speed="11.11"/>
    <type id="476620820_01_type" numLanes="1" speed="13.89"/>
    <type id="476620830_01_type" numLanes="3" speed="13.89"/>
    <type id="476620830_02_type" numLanes="3" speed="13.89"/>
    <type id="476622630_01_type" numLanes="1" speed="13.89"/>
    <type id="476622630_02_type" numLanes="1" speed="13.89"/>
    <type id="476622632_01_type" numLanes="3" speed="13.89"/>
    <type id="476622632_02_type" numLanes="2" speed="13.89"/>
    <type id="476622636_01_type" numLanes="1" speed="13.89"/>
    <type id="476622636_02_type" numLanes="1" speed="13.89"/>
    <type id="476622638_01_type" numLanes="2" speed="13.89"/>
    <type id="476622640_01_type" numLanes="2" speed="13.89"/>
    <type id="476623538_01_type" numLanes="1" speed="13.89"/>
    <type id="476623538_02_type" numLanes="1" speed="13.89"/>
    <type id="476623540_01_type" numLanes="1" speed="13.89"/>
    <type id="476623540_02_type" numLanes="1" speed="13.89"/>
    <type id="476623614_01_type" numLanes="1" speed="11.11"/>
    <type id="476623614_02_type" numLanes="1" speed="11.11"/>
    <type id="476623874_01_type" numLanes="3" speed="11.11"/>
    <type id="476623874_02_type" numLanes="2" speed="11.11"/>
    <type id="476624306_01_type" numLanes="1" speed="13.89"/>
    <type id="476624306_02_type" numLanes="1" speed="13.89"/>
    <type id="476624592_01_type" numLanes="1" speed="13.89"/>
    <type id="476624592_02_type" numLanes="1" speed="13.89"/>
    <type id="476624594_01_type" numLanes="1" speed="13.89"/>
    <type id="476624594_02_type" numLanes="1" speed="13.89"/>
    <type id="476624596_01_type" numLanes="1" speed="13.89"/>
    <type id="476624596_02_type" numLanes="1" speed="13.89"/>
    <type id="476624598_01_type" numLanes="1" speed="13.89"/>
    <type id="476624598_02_type" numLanes="1" speed="13.89"/>
    <type id="476624600_01_type" numLanes="1" speed="13.89"/>
    <type id="476624600_02_type" numLanes="1" speed="13.89"/>
    <type id="476624602_01_type" numLanes="1" speed="13.89"/>
    <type id="476624602_02_type" numLanes="1" speed="13.89"/>
    <type id="476624604_01_type" numLanes="1" speed="13.89"/>
    <type id="476624604_02_type" numLanes="1" speed="13.89"/>
    <type id="476624606_01_type" numLanes="1" speed="13.89"/>
    <type id="476624606_02_type" numLanes="1" speed="13.89"/>
    <type id="476624613_01_01_type" numLanes="3" speed="13.89"/>
    <type id="476624613_0201_01_type" numLanes="2" speed="13.89"/>
    <type id="476624613_020201_01_type" numLanes="3" speed="13.89"/>
    <type id="476624613_020202_01_type" numLanes="2" speed="13.89"/>
    <type id="476626417_01_type" numLanes="1" speed="13.89"/>
    <type id="476626417_02_type" numLanes="1" speed="13.89"/>
    <type id="476627406_01_type" numLanes="1" speed="13.89"/>
    <type id="476627406_02_type" numLanes="1" speed="13.89"/>
    <type id="476627548_01_type" numLanes="1" speed="13.89"/>
    <type id="476627548_02_type" numLanes="1" speed="13.89"/>
    <type id="476627550_01_type" numLanes="2" speed="13.89"/>
    <type id="476627550_02_type" numLanes="2" speed="13.89"/>
    <type id="476627552_01_type" numLanes="2" speed="13.89"/>
    <type id="476627552_02_type" numLanes="2" speed="13.89"/>
    <type id="476627554_01_type" numLanes="1" speed="13.89"/>
    <type id="476627554_02_type" numLanes="1" speed="13.89"/>
    <type id="476630586_02_01_type" numLanes="3" speed="19.44"/>
    <type id="476630586_02_02_type" numLanes="3" speed="19.44"/>
    <type id="476632858_01_type" numLanes="2" speed="13.89"/>
    <type id="476632858_02_type" numLanes="2" speed="13.89"/>
    <type id="476635246_01_type" numLanes="1" speed="13.89"/>
    <type id="476635246_02_type" numLanes="1" speed="13.89"/>
    <type id="476711427_01_type" numLanes="2" speed="16.67"/>
    <type id="476711427_02_type" numLanes="2" speed="16.67"/>
    <type id="476745021_01_type" numLanes="6" speed="13.89"/>
    <type id="476745021_02_type" numLanes="6" speed="13.89"/>
    <type id="476745023_01_01_type" numLanes="2" speed="13.89"/>
    <type id="476745023_01_02_type" numLanes="3" speed="13.89"/>
    <type id="476745023_02_01_type" numLanes="2" speed="13.89"/>
    <type id="476745023_02_02_type" numLanes="2" speed="13.89"/>
    <type id="476745030_0101_01_type" numLanes="6" speed="13.89"/>
    <type id="476745030_0101_02_type" numLanes="6" speed="13.89"/>
    <type id="476745030_0102_01_type" numLanes="6" speed="13.89"/>
    <type id="476745030_0102_02_type" numLanes="6" speed="13.89"/>
    <type id="476745030_0201_01_type" numLanes="5" speed="13.89"/>
    <type id="476745030_0201_02_type" numLanes="6" speed="13.89"/>
    <type id="476745030_0202_01_type" numLanes="6" speed="13.89"/>
    <type id="476745030_0202_02_type" numLanes="5" speed="13.89"/>
    <type id="476745092_01_type" numLanes="4" speed="16.67"/>
    <type id="476745095_01_type" numLanes="4" speed="13.89"/>
    <type id="476745096_01_type" numLanes="3" speed="16.67"/>
    <type id="476745098_01_type" numLanes="3" speed="13.89"/>
    <type id="476745110_01_type" numLanes="3" speed="16.67"/>
    <type id="476745110_02_type" numLanes="3" speed="16.67"/>
    <type id="476745114_01_type" numLanes="4" speed="19.44"/>
    <type id="476745114_02_type" numLanes="5" speed="19.44"/>
    <type id="476745116_01_type" numLanes="4" speed="19.44"/>
    <type id="476745116_02_type" numLanes="4" speed="19.44"/>
    <type id="476745121_01_type" numLanes="1" speed="13.89"/>
    <type id="476745122_01_type" numLanes="5" speed="13.89"/>
    <type id="476745124_01_type" numLanes="1" speed="13.89"/>
    <type id="476745788_01_type" numLanes="4" speed="16.67"/>
    <type id="476745788_02_type" numLanes="5" speed="16.67"/>
    <type id="476745800_01_type" numLanes="3" speed="16.67"/>
    <type id="476745800_02_type" numLanes="3" speed="16.67"/>
    <type id="476746206_01_type" numLanes="2" speed="16.67"/>
    <type id="476746206_02_type" numLanes="2" speed="16.67"/>
    <type id="476748909_01_01_type" numLanes="2" speed="16.67"/>
    <type id="476748909_01_02_type" numLanes="2" speed="16.67"/>
    <type id="476749066_01_type" numLanes="2" speed="13.89"/>
    <type id="476751379_01_01_type" numLanes="3" speed="19.44"/>
    <type id="476751379_01_02_type" numLanes="4" speed="19.44"/>
    <type id="476751379_020102_01_type" numLanes="4" speed="19.44"/>
    <type id="476751379_020102_02_type" numLanes="4" speed="19.44"/>
    <type id="476751379_0202_01_type" numLanes="5" speed="19.44"/>
    <type id="476751379_0202_02_type" numLanes="4" speed="19.44"/>
    <type id="476751390_01_type" numLanes="1" speed="13.89"/>
    <type id="476751391_01_type" numLanes="4" speed="13.89"/>
    <type id="476751392_01_type" numLanes="4" speed="13.89"/>
    <type id="476759554_01_type" numLanes="1" speed="13.89"/>
    <type id="476759554_02_type" numLanes="1" speed="13.89"/>
    <type id="476759562_01_type" numLanes="1" speed="13.89"/>
    <type id="476759562_02_type" numLanes="1" speed="13.89"/>
    <type id="476759927_01_01_type" numLanes="3" speed="13.89"/>
    <type id="476759927_02_01_type" numLanes="4" speed="13.89"/>
    <type id="476759931_01_01_type" numLanes="4" speed="13.89"/>
    <type id="476759931_0201_01_type" numLanes="3" speed="13.89"/>
    <type id="476759931_0202_01_type" numLanes="5" speed="13.89"/>
    <type id="476760936_01_type" numLanes="1" speed="13.89"/>
    <type id="476760938_01_type" numLanes="3" speed="13.89"/>
    <type id="476760940_01_type" numLanes="4" speed="13.89"/>
    <type id="476760942_01_type" numLanes="3" speed="13.89"/>
    <type id="476760944_01_type" numLanes="3" speed="13.89"/>
    <type id="476762834_01_type" numLanes="4" speed="16.67"/>
    <type id="476762834_02_type" numLanes="6" speed="16.67"/>
    <type id="477602138_01_type" numLanes="2" speed="8.33"/>
    <type id="477602138_02_type" numLanes="2" speed="8.33"/>
    <type id="477603017_01_01_type" numLanes="1" speed="13.89"/>
    <type id="477603017_01_02_type" numLanes="1" speed="13.89"/>
    <type id="477603017_02_01_type" numLanes="2" speed="13.89"/>
    <type id="477603017_02_02_type" numLanes="1" speed="13.89"/>
    <type id="477603074_01_type" numLanes="1" speed="13.89"/>
    <type id="477603075_01_type" numLanes="1" speed="11.11"/>
    <type id="477603075_02_type" numLanes="1" speed="11.11"/>
    <type id="477603076_01_type" numLanes="1" speed="11.11"/>
    <type id="477603076_02_type" numLanes="1" speed="11.11"/>
    <type id="477603085_01_type" numLanes="1" speed="13.89"/>
    <type id="477603085_02_type" numLanes="1" speed="13.89"/>
    <type id="477603115_01_type" numLanes="1" speed="13.89"/>
    <type id="477603115_02_type" numLanes="1" speed="13.89"/>
    <type id="477603116_01_type" numLanes="1" speed="13.89"/>
    <type id="477603116_02_type" numLanes="1" speed="13.89"/>
    <type id="477603136_01_type" numLanes="1" speed="13.89"/>
    <type id="477603136_02_type" numLanes="1" speed="13.89"/>
    <type id="477603144_01_type" numLanes="1" speed="13.89"/>
    <type id="477603174_01_type" numLanes="1" speed="13.89"/>
    <type id="477603174_02_type" numLanes="1" speed="13.89"/>
    <type id="477603176_01_type" numLanes="1" speed="13.89"/>
    <type id="477603176_02_type" numLanes="1" speed="13.89"/>
    <type id="477603177_01_type" numLanes="1" speed="11.11"/>
    <type id="477603177_02_type" numLanes="1" speed="11.11"/>
    <type id="477603198_01_type" numLanes="1" speed="13.89"/>
    <type id="477603199_01_type" numLanes="1" speed="13.89"/>
    <type id="477603222_01_type" numLanes="1" speed="11.11"/>
    <type id="477603224_01_type" numLanes="1" speed="13.89"/>
    <type id="477603225_01_type" numLanes="1" speed="13.89"/>
    <type id="477603228_01_type" numLanes="1" speed="13.89"/>
    <type id="477603230_01_type" numLanes="1" speed="13.89"/>
    <type id="477603231_01_type" numLanes="1" speed="13.89"/>
    <type id="477603238_01_type" numLanes="1" speed="13.89"/>
    <type id="477603238_02_type" numLanes="1" speed="13.89"/>
    <type id="477603250_01_type" numLanes="1" speed="11.11"/>
    <type id="477603250_02_type" numLanes="2" speed="11.11"/>
    <type id="477603253_01_type" numLanes="1" speed="11.11"/>
    <type id="477603253_02_type" numLanes="1" speed="11.11"/>
    <type id="477603254_01_type" numLanes="1" speed="13.89"/>
    <type id="477603263_01_type" numLanes="1" speed="13.89"/>
    <type id="477603264_01_type" numLanes="1" speed="13.89"/>
    <type id="477603265_01_type" numLanes="1" speed="13.89"/>
    <type id="477603266_01_type" numLanes="1" speed="13.89"/>
    <type id="477603267_01_type" numLanes="1" speed="13.89"/>
    <type id="477603267_02_type" numLanes="1" speed="13.89"/>
    <type id="477603268_01_type" numLanes="1" speed="13.89"/>
    <type id="477603269_01_type" numLanes="1" speed="13.89"/>
    <type id="477603273_01_type" numLanes="1" speed="13.89"/>
    <type id="477603292_01_type" numLanes="1" speed="13.89"/>
    <type id="477603302_01_01_type" numLanes="1" speed="13.89"/>
    <type id="477603302_01_02_type" numLanes="2" speed="13.89"/>
    <type id="477603302_02_01_type" numLanes="1" speed="13.89"/>
    <type id="477603302_02_02_type" numLanes="2" speed="13.89"/>
    <type id="477603337_01_type" numLanes="1" speed="13.89"/>
    <type id="477603337_02_type" numLanes="1" speed="13.89"/>
    <type id="477603392_01_type" numLanes="2" speed="13.89"/>
    <type id="477603392_02_type" numLanes="2" speed="13.89"/>
    <type id="477603455_01_type" numLanes="2" speed="13.89"/>
    <type id="477603455_02_type" numLanes="2" speed="13.89"/>
    <type id="477603467_01_type" numLanes="1" speed="13.89"/>
    <type id="477603467_02_type" numLanes="1" speed="13.89"/>
    <type id="477603471_01_type" numLanes="1" speed="13.89"/>
    <type id="477603471_02_type" numLanes="1" speed="13.89"/>
    <type id="477603643_01_type" numLanes="2" speed="13.89"/>
    <type id="477603643_02_type" numLanes="2" speed="13.89"/>
    <type id="477603660_01_type" numLanes="2" speed="13.89"/>
    <type id="477603660_02_type" numLanes="1" speed="13.89"/>
    <type id="477603790_01_type" numLanes="1" speed="13.89"/>
    <type id="477603790_02_type" numLanes="1" speed="13.89"/>
    <type id="477603812_01_type" numLanes="1" speed="13.89"/>
    <type id="477603812_02_type" numLanes="1" speed="13.89"/>
    <type id="477603827_01_type" numLanes="1" speed="11.11"/>
    <type id="477603827_02_type" numLanes="1" speed="11.11"/>
    <type id="477603920_01_type" numLanes="2" speed="13.89"/>
    <type id="477603920_02_type" numLanes="1" speed="13.89"/>
    <type id="477603922_01_type" numLanes="1" speed="13.89"/>
    <type id="477603922_02_type" numLanes="1" speed="13.89"/>
    <type id="477603974_01_type" numLanes="2" speed="13.89"/>
    <type id="477603974_02_type" numLanes="2" speed="13.89"/>
    <type id="477603984_0101_01_type" numLanes="2" speed="13.89"/>
    <type id="477603984_0101_02_type" numLanes="3" speed="13.89"/>
    <type id="477603984_0102_01_type" numLanes="2" speed="13.89"/>
    <type id="477603984_0102_02_type" numLanes="3" speed="13.89"/>
    <type id="477603984_02_01_type" numLanes="2" speed="13.89"/>
    <type id="477603984_02_02_type" numLanes="2" speed="13.89"/>