<tlLogics>

    <tlLogic id="191223" type="static" programID="0000_0630" offset="40">
      <phase duration="34" name="2_g" minDur="34" state="grrrrgrrrrrgGGGgrrrr"/>
      <phase duration="4" name="2_y" minDur="4" state="grrrrgrrrrrgyyygrrrr"/>
      <phase duration="10" name="3_g" minDur="10" state="grrrrgrrrrrgrrrgGGGG"/>
      <phase duration="14" name="4_g" minDur="14" state="grrrrgrrrrrgrrrgGGGG"/>
      <phase duration="4" name="4_y" minDur="4" state="grrrrgrrrrrgrrrgyyyy"/>
      <phase duration="33" name="5_g" minDur="33" state="grrrrgGGGGGgrrrgrrrr"/>
      <phase duration="4" name="5_y" minDur="4" state="grrrrgyyyyygrrrgrrrr"/>
      <phase duration="33" name="1_g" minDur="33" state="gGGGGgrrrrrgrrrgrrrr"/>
      <phase duration="4" name="1_y" minDur="4" state="gyyyygrrrrrgrrrgrrrr"/>
    </tlLogic>
    <tlLogic id="191223" type="static" programID="0630_0700" offset="40">
      <phase duration="44" name="2_g" minDur="34" state="grrrrgrrrrrgGGGgrrrr"/>
      <phase duration="4" name="2_y" minDur="4" state="grrrrgrrrrrgyyygrrrr"/>
      <phase duration="10" name="3_g" minDur="10" state="grrrrgrrrrrgrrrgGGGG"/>
      <phase duration="14" name="4_g" minDur="14" state="grrrrgrrrrrgrrrgGGGG"/>
      <phase duration="4" name="4_y" minDur="4" state="grrrrgrrrrrgrrrgyyyy"/>
      <phase duration="33" name="5_g" minDur="33" state="grrrrgGGGGGgrrrgrrrr"/>
      <phase duration="4" name="5_y" minDur="4" state="grrrrgyyyyygrrrgrrrr"/>
      <phase duration="33" name="1_g" minDur="33" state="gGGGGgrrrrrgrrrgrrrr"/>
      <phase duration="4" name="1_y" minDur="4" state="gyyyygrrrrrgrrrgrrrr"/>
    </tlLogic>
    <tlLogic id="191223" type="static" programID="0700_0930" offset="40">
      <phase duration="50" name="2_g" minDur="34" state="grrrrgrrrrrgGGGgrrrr"/>
      <phase duration="4" name="2_y" minDur="4" state="grrrrgrrrrrgyyygrrrr"/>
      <phase duration="10" name="3_g" minDur="10" state="grrrrgrrrrrgrrrgGGGG"/>
      <phase duration="14" name="4_g" minDur="14" state="grrrrgrrrrrgrrrgGGGG"/>
      <phase duration="4" name="4_y" minDur="4" state="grrrrgrrrrrgrrrgyyyy"/>
      <phase duration="33" name="5_g" minDur="33" state="grrrrgGGGGGgrrrgrrrr"/>
      <phase duration="4" name="5_y" minDur="4" state="grrrrgyyyyygrrrgrrrr"/>
      <phase duration="37" name="1_g" minDur="33" state="gGGGGgrrrrrgrrrgrrrr"/>
      <phase duration="4" name="1_y" minDur="4" state="gyyyygrrrrrgrrrgrrrr"/>
    </tlLogic>
    <tlLogic id="191223" type="static" programID="0930_1700" offset="40">
      <phase duration="40" name="2_g" minDur="34" state="grrrrgrrrrrgGGGgrrrr"/>
      <phase duration="4" name="2_y" minDur="4" state="grrrrgrrrrrgyyygrrrr"/>
      <phase duration="10" name="3_g" minDur="10" state="grrrrgrrrrrgrrrgGGGG"/>
      <phase duration="14" name="4_g" minDur="14" state="grrrrgrrrrrgrrrgGGGG"/>
      <phase duration="4" name="4_y" minDur="4" state="grrrrgrrrrrgrrrgyyyy"/>
      <phase duration="33" name="5_g" minDur="33" state="grrrrgGGGGGgrrrgrrrr"/>
      <phase duration="4" name="5_y" minDur="4" state="grrrrgyyyyygrrrgrrrr"/>
      <phase duration="37" name="1_g" minDur="33" state="gGGGGgrrrrrgrrrgrrrr"/>
      <phase duration="4" name="1_y" minDur="4" state="gyyyygrrrrrgrrrgrrrr"/>
    </tlLogic>
    <tlLogic id="191223" type="static" programID="1700_2030" offset="40">
      <phase duration="46" name="2_g" minDur="34" state="grrrrgrrrrrgGGGgrrrr"/>
      <phase duration="4" name="2_y" minDur="4" state="grrrrgrrrrrgyyygrrrr"/>
      <phase duration="10" name="3_g" minDur="10" state="grrrrgrrrrrgrrrgGGGG"/>
      <phase duration="14" name="4_g" minDur="14" state="grrrrgrrrrrgrrrgGGGG"/>
      <phase duration="4" name="4_y" minDur="4" state="grrrrgrrrrrgrrrgyyyy"/>
      <phase duration="33" name="5_g" minDur="33" state="grrrrgGGGGGgrrrgrrrr"/>
      <phase duration="4" name="5_y" minDur="4" state="grrrrgyyyyygrrrgrrrr"/>
      <phase duration="41" name="1_g" minDur="33" state="gGGGGgrrrrrgrrrgrrrr"/>
      <phase duration="4" name="1_y" minDur="4" state="gyyyygrrrrrgrrrgrrrr"/>
    </tlLogic>
    <tlLogic id="191223" type="static" programID="2030_2230" offset="40">
      <phase duration="40" name="2_g" minDur="34" state="grrrrgrrrrrgGGGgrrrr"/>
      <phase duration="4" name="2_y" minDur="4" state="grrrrgrrrrrgyyygrrrr"/>
      <phase duration="10" name="3_g" minDur="10" state="grrrrgrrrrrgrrrgGGGG"/>
      <phase duration="14" name="4_g" minDur="14" state="grrrrgrrrrrgrrrgGGGG"/>
      <phase duration="4" name="4_y" minDur="4" state="grrrrgrrrrrgrrrgyyyy"/>
      <phase duration="33" name="5_g" minDur="33" state="grrrrgGGGGGgrrrgrrrr"/>
      <phase duration="4" name="5_y" minDur="4" state="grrrrgyyyyygrrrgrrrr"/>
      <phase duration="37" name="1_g" minDur="33" state="gGGGGgrrrrrgrrrgrrrr"/>
      <phase duration="4" name="1_y" minDur="4" state="gyyyygrrrrrgrrrgrrrr"/>
    </tlLogic>
    <tlLogic id="191223" type="static" programID="2230_2330" offset="40">
      <phase duration="34" name="2_g" minDur="34" state="grrrrgrrrrrgGGGgrrrr"/>
      <phase duration="4" name="2_y" minDur="4" state="grrrrgrrrrrgyyygrrrr"/>
      <phase duration="10" name="3_g" minDur="10" state="grrrrgrrrrrgrrrgGGGG"/>
      <phase duration="14" name="4_g" minDur="14" state="grrrrgrrrrrgrrrgGGGG"/>
      <phase duration="4" name="4_y" minDur="4" state="grrrrgrrrrrgrrrgyyyy"/>
      <phase duration="33" name="5_g" minDur="33" state="grrrrgGGGGGgrrrgrrrr"/>
      <phase duration="4" name="5_y" minDur="4" state="grrrrgyyyyygrrrgrrrr"/>
      <phase duration="33" name="1_g" minDur="33" state="gGGGGgrrrrrgrrrgrrrr"/>
      <phase duration="4" name="1_y" minDur="4" state="gyyyygrrrrrgrrrgrrrr"/>
    </tlLogic>
    <tlLogic id="191223" type="static" programID="2330_2400" offset="40">
      <phase duration="34" name="2_g" minDur="34" state="grrrrgrrrrrgGGGgrrrr"/>
      <phase duration="4" name="2_y" minDur="4" state="grrrrgrrrrrgyyygrrrr"/>
      <phase duration="10" name="3_g" minDur="10" state="grrrrgrrrrrgrrrgGGGG"/>
      <phase duration="14" name="4_g" minDur="14" state="grrrrgrrrrrgrrrgGGGG"/>
      <phase duration="4" name="4_y" minDur="4" state="grrrrgrrrrrgrrrgyyyy"/>
      <phase duration="33" name="5_g" minDur="33" state="grrrrgGGGGGgrrrgrrrr"/>
      <phase duration="4" name="5_y" minDur="4" state="grrrrgyyyyygrrrgrrrr"/>
      <phase duration="33" name="1_g" minDur="33" state="gGGGGgrrrrrgrrrgrrrr"/>
      <phase duration="4" name="1_y" minDur="4" state="gyyyygrrrrrgrrrgrrrr"/>
    </tlLogic>
    <tlLogic id="191224" type="static" programID="0000_0630" offset="40">
      <phase duration="1" name="2_r" minDur="1" state="grrgrrrrgrrrgrrrr"/>
      <phase duration="38" name="2_g" minDur="32" state="grrgGGGrgrrrgGGGr"/>
      <phase duration="3" name="2_y" minDur="3" state="grrgyyyrgrrrgyyyr"/>
      <phase duration="17" name="3_g" minDur="12" state="grrgrrrGgrrrgrrrG"/>
      <phase duration="3" name="3_y" minDur="3" state="grrgrrrygrrrgrrry"/>
      <phase duration="14" name="4_g" minDur="13" state="grrgrrrrgGGGgrrrr"/>
      <phase duration="20" name="5_g" minDur="20" state="grrgrrrrgGGGgrrrr"/>
      <phase duration="5" name="5_y" minDur="5" state="grrgrrrrgyyygrrrr"/>
      <phase duration="1" name="1_r" minDur="1" state="grrgrrrrgrrrgrrrr"/>
      <phase duration="34" name="1_g" minDur="35" state="gGGgrrrrgrrrgrrrr"/>
      <phase duration="4" name="1_y" minDur="4" state="gyygrrrrgrrrgrrrr"/>
    </tlLogic>
    <tlLogic id="191224" type="static" programID="0630_0700" offset="45">
      <phase duration="1" name="2_r" minDur="1" state="grrgrrrrgrrrgrrrr"/>
      <phase duration="42" name="2_g" minDur="32" state="grrgGGGrgrrrgGGGr"/>
      <phase duration="3" name="2_y" minDur="3" state="grrgyyyrgrrrgyyyr"/>
      <phase duration="20" name="3_g" minDur="12" state="grrgrrrGgrrrgrrrG"/>
      <phase duration="3" name="3_y" minDur="3" state="grrgrrrygrrrgrrry"/>
      <phase duration="17" name="4_g" minDur="13" state="grrgrrrrgGGGgrrrr"/>
      <phase duration="20" name="5_g" minDur="20" state="grrgrrrrgGGGgrrrr"/>
      <phase duration="5" name="5_y" minDur="5" state="grrgrrrrgyyygrrrr"/>
      <phase duration="1" name="1_r" minDur="1" state="grrgrrrrgrrrgrrrr"/>
      <phase duration="34" name="1_g" minDur="35" state="gGGgrrrrgrrrgrrrr"/>
      <phase duration="4" name="1_y" minDur="4" state="gyygrrrrgrrrgrrrr"/>
    </tlLogic>
    <tlLogic id="191224" type="static" programID="0700_0930" offset="60">
      <phase duration="1" name="2_r" minDur="1" state="grrgrrrrgrrrgrrrr"/>
      <phase duration="46" name="2_g" minDur="32" state="grrgGGGrgrrrgGGGr"/>
      <phase duration="3" name="2_y" minDur="3" state="grrgyyyrgrrrgyyyr"/>
      <phase duration="23" name="3_g" minDur="12" state="grrgrrrGgrrrgrrrG"/>
      <phase duration="3" name="3_y" minDur="3" state="grrgrrrygrrrgrrry"/>
      <phase duration="20" name="4_g" minDur="13" state="grrgrrrrgGGGgrrrr"/>
      <phase duration="20" name="5_g" minDur="20" state="grrgrrrrgGGGgrrrr"/>
      <phase duration="5" name="5_y" minDur="5" state="grrgrrrrgyyygrrrr"/>
      <phase duration="1" name="1_r" minDur="1" state="grrgrrrrgrrrgrrrr"/>
      <phase duration="34" name="1_g" minDur="35" state="gGGgrrrrgrrrgrrrr"/>
      <phase duration="4" name="1_y" minDur="4" state="gyygrrrrgrrrgrrrr"/>
    </tlLogic>
    <tlLogic id="191224" type="static" programID="0930_1700" offset="60">
      <phase duration="1" name="2_r" minDur="1" state="grrgrrrrgrrrgrrrr"/>
      <phase duration="45" name="2_g" minDur="32" state="grrgGGGrgrrrgGGGr"/>
      <phase duration="3" name="2_y" minDur="3" state="grrgyyyrgrrrgyyyr"/>
      <phase duration="25" name="3_g" minDur="12" state="grrgrrrGgrrrgrrrG"/>
      <phase duration="3" name="3_y" minDur="3" state="grrgrrrygrrrgrrry"/>
      <phase duration="13" name="4_g" minDur="13" state="grrgrrrrgGGGgrrrr"/>
      <phase duration="20" name="5_g" minDur="20" state="grrgrrrrgGGGgrrrr"/>
      <phase duration="5" name="5_y" minDur="5" state="grrgrrrrgyyygrrrr"/>
      <phase duration="1" name="1_r" minDur="1" state="grrgrrrrgrrrgrrrr"/>
      <phase duration="40" name="1_g" minDur="35" state="gGGgrrrrgrrrgrrrr"/>
      <phase duration="4" name="1_y" minDur="4" state="gyygrrrrgrrrgrrrr"/>
    </tlLogic>
    <tlLogic id="191224" type="static" programID="1700_2030" offset="115">
      <phase duration="1" name="2_r" minDur="1" state="grrgrrrrgrrrgrrrr"/>
      <phase duration="45" name="2_g" minDur="32" state="grrgGGGrgrrrgGGGr"/>
      <phase duration="3" name="2_y" minDur="3" state="grrgyyyrgrrrgyyyr"/>
      <phase duration="25" name="3_g" minDur="12" state="grrgrrrGgrrrgrrrG"/>
      <phase duration="3" name="3_y" minDur="3" state="grrgrrrygrrrgrrry"/>
      <phase duration="13" name="4_g" minDur="13" state="grrgrrrrgGGGgrrrr"/>
      <phase duration="20" name="5_g" minDur="20" state="grrgrrrrgGGGgrrrr"/>
      <phase duration="5" name="5_y" minDur="5" state="grrgrrrrgyyygrrrr"/>
      <phase duration="1" name="1_r" minDur="1" state="grrgrrrrgrrrgrrrr"/>
      <phase duration="40" name="1_g" minDur="35" state="gGGgrrrrgrrrgrrrr"/>
      <phase duration="4" name="1_y" minDur="4" state="gyygrrrrgrrrgrrrr"/>
    </tlLogic>
    <tlLogic id="191224" type="static" programID="2030_2200" offset="45">
      <phase duration="1" name="2_r" minDur="1" state="grrgrrrrgrrrgrrrr"/>
      <phase duration="41" name="2_g" minDur="32" state="grrgGGGrgrrrgGGGr"/>
      <phase duration="3" name="2_y" minDur="3" state="grrgyyyrgrrrgyyyr"/>
      <phase duration="22" name="3_g" minDur="12" state="grrgrrrGgrrrgrrrG"/>
      <phase duration="3" name="3_y" minDur="3" state="grrgrrrygrrrgrrry"/>
      <phase duration="13" name="4_g" minDur="13" state="grrgrrrrgGGGgrrrr"/>
      <phase duration="20" name="5_g" minDur="20" state="grrgrrrrgGGGgrrrr"/>
      <phase duration="5" name="5_y" minDur="5" state="grrgrrrrgyyygrrrr"/>
      <phase duration="1" name="1_r" minDur="1" state="grrgrrrrgrrrgrrrr"/>
      <phase duration="37" name="1_g" minDur="35" state="gGGgrrrrgrrrgrrrr"/>
      <phase duration="4" name="1_y" minDur="4" state="gyygrrrrgrrrgrrrr"/>
    </tlLogic>
    <tlLogic id="191224" type="static" programID="2200_2400" offset="40">
      <phase duration="1" name="2_r" minDur="1" state="grrgrrrrgrrrgrrrr"/>
      <phase duration="38" name="2_g" minDur="32" state="grrgGGGrgrrrgGGGr"/>
      <phase duration="3" name="2_y" minDur="3" state="grrgyyyrgrrrgyyyr"/>
      <phase duration="18" name="3_g" minDur="12" state="grrgrrrGgrrrgrrrG"/>
      <phase duration="3" name="3_y" minDur="3" state="grrgrrrygrrrgrrry"/>
      <phase duration="13" name="4_g" minDur="13" state="grrgrrrrgGGGgrrrr"/>
      <phase duration="20" name="5_g" minDur="20" state="grrgrrrrgGGGgrrrr"/>
      <phase duration="5" name="5_y" minDur="5" state="grrgrrrrgyyygrrrr"/>
      <phase duration="1" name="1_r" minDur="1" state="grrgrrrrgrrrgrrrr"/>
      <phase duration="34" name="1_g" minDur="35" state="gGGgrrrrgrrrgrrrr"/>
      <phase duration="4" name="1_y" minDur="4" state="gyygrrrrgrrrgrrrr"/>
    </tlLogic>
    <tlLogic id="191235" type="static" programID="0000_0600" offset="23">
      <phase duration="1" name="2_r" minDur="1" state="rrrrgrgrr"/>
      <phase duration="34" name="2_g" minDur="28" state="GGGrgrgGG"/>
      <phase duration="28" name="3_g" minDur="28" state="GGGrgrgGG"/>
      <phase duration="4" name="3_y" minDur="4" state="GGGrgrgyy"/>
      <phase duration="1" name="4_r" minDur="1" state="GGGrgrgrr"/>
      <phase duration="27" name="4_g" minDur="28" state="GGGGgrgrr"/>
      <phase duration="4" name="4_y" minDur="4" state="yyyygrgrr"/>
      <phase duration="1" name="5_r" minDur="1" state="rrrrgrgrr"/>
      <phase duration="22" name="5_g" minDur="16" state="rrrrgGgrr"/>
      <phase duration="4" name="5_y" minDur="4" state="rrrrgygrr"/>
      <phase duration="34" name="1_g" minDur="34" state="rrrrgrgrr"/>
    </tlLogic>
    <tlLogic id="191235" type="static" programID="0600_0700" offset="26">
      <phase duration="1" name="2_r" minDur="1" state="rrrrgrgrr"/>
      <phase duration="40" name="2_g" minDur="28" state="GGGrgrgGG"/>
      <phase duration="28" name="3_g" minDur="28" state="GGGrgrgGG"/>
      <phase duration="4" name="3_y" minDur="4" state="GGGrgrgyy"/>
      <phase duration="1" name="4_r" minDur="1" state="GGGrgrgrr"/>
      <phase duration="27" name="4_g" minDur="28" state="GGGGgrgrr"/>
      <phase duration="4" name="4_y" minDur="4" state="yyyygrgrr"/>
      <phase duration="1" name="5_r" minDur="1" state="rrrrgrgrr"/>
      <phase duration="26" name="5_g" minDur="16" state="rrrrgGgrr"/>
      <phase duration="4" name="5_y" minDur="4" state="rrrrgygrr"/>
      <phase duration="34" name="1_g" minDur="34" state="rrrrgrgrr"/>
    </tlLogic>
    <tlLogic id="191235" type="static" programID="0700_0930" offset="29">
      <phase duration="1" name="2_r" minDur="1" state="rrrrgrgrr"/>
      <phase duration="46" name="2_g" minDur="28" state="GGGrgrgGG"/>
      <phase duration="28" name="3_g" minDur="28" state="GGGrgrgGG"/>
      <phase duration="4" name="3_y" minDur="4" state="GGGrgrgyy"/>
      <phase duration="1" name="4_r" minDur="1" state="GGGrgrgrr"/>
      <phase duration="28" name="4_g" minDur="28" state="GGGGgrgrr"/>
      <phase duration="4" name="4_y" minDur="4" state="yyyygrgrr"/>
      <phase duration="1" name="5_r" minDur="1" state="rrrrgrgrr"/>
      <phase duration="29" name="5_g" minDur="16" state="rrrrgGgrr"/>
      <phase duration="4" name="5_y" minDur="4" state="rrrrgygrr"/>
      <phase duration="34" name="1_g" minDur="34" state="rrrrgrgrr"/>
    </tlLogic>
    <tlLogic id="191235" type="static" programID="0930_1700" offset="25">
      <phase duration="1" name="2_r" minDur="1" state="rrrrgrgrr"/>
      <phase duration="41" name="2_g" minDur="28" state="GGGrgrgGG"/>
      <phase duration="28" name="3_g" minDur="28" state="GGGrgrgGG"/>
      <phase duration="4" name="3_y" minDur="4" state="GGGrgrgyy"/>
      <phase duration="1" name="4_r" minDur="1" state="GGGrgrgrr"/>
      <phase duration="28" name="4_g" minDur="28" state="GGGGgrgrr"/>
      <phase duration="4" name="4_y" minDur="4" state="yyyygrgrr"/>
      <phase duration="1" name="5_r" minDur="1" state="rrrrgrgrr"/>
      <phase duration="24" name="5_g" minDur="16" state="rrrrgGgrr"/>
      <phase duration="4" name="5_y" minDur="4" state="rrrrgygrr"/>
      <phase duration="34" name="1_g" minDur="34" state="rrrrgrgrr"/>
    </tlLogic>
    <tlLogic id="191235" type="static" programID="1700_2030" offset="27">
      <phase duration="1" name="2_r" minDur="1" state="rrrrgrgrr"/>
      <phase duration="43" name="2_g" minDur="28" state="GGGrgrgGG"/>
      <phase duration="28" name="3_g" minDur="28" state="GGGrgrgGG"/>
      <phase duration="4" name="3_y" minDur="4" state="GGGrgrgyy"/>
      <phase duration="1" name="4_r" minDur="1" state="GGGrgrgrr"/>
      <phase duration="35" name="4_g" minDur="28" state="GGGGgrgrr"/>
      <phase duration="4" name="4_y" minDur="4" state="yyyygrgrr"/>
      <phase duration="1" name="5_r" minDur="1" state="rrrrgrgrr"/>
      <phase duration="25" name="5_g" minDur="16" state="rrrrgGgrr"/>
      <phase duration="4" name="5_y" minDur="4" state="rrrrgygrr"/>
      <phase duration="34" name="1_g" minDur="34" state="rrrrgrgrr"/>
    </tlLogic>
    <tlLogic id="191235" type="static" programID="2030_2230" offset="25">
      <phase duration="1" name="2_r" minDur="1" state="rrrrgrgrr"/>
      <phase duration="41" name="2_g" minDur="28" state="GGGrgrgGG"/>
      <phase duration="28" name="3_g" minDur="28" state="GGGrgrgGG"/>
      <phase duration="4" name="3_y" minDur="4" state="GGGrgrgyy"/>
      <phase duration="1" name="4_r" minDur="1" state="GGGrgrgrr"/>
      <phase duration="30" name="4_g" minDur="28" state="GGGGgrgrr"/>
      <phase duration="4" name="4_y" minDur="4" state="yyyygrgrr"/>
      <phase duration="1" name="5_r" minDur="1" state="rrrrgrgrr"/>
      <phase duration="22" name="5_g" minDur="16" state="rrrrgGgrr"/>
      <phase duration="4" name="5_y" minDur="4" state="rrrrgygrr"/>
      <phase duration="34" name="1_g" minDur="34" state="rrrrgrgrr"/>
    </tlLogic>
    <tlLogic id="191235" type="static" programID="2230_2330" offset="23">
      <phase duration="1" name="2_r" minDur="1" state="rrrrgrgrr"/>
      <phase duration="34" name="2_g" minDur="28" state="GGGrgrgGG"/>
      <phase duration="28" name="3_g" minDur="28" state="GGGrgrgGG"/>
      <phase duration="4" name="3_y" minDur="4" state="GGGrgrgyy"/>
      <phase duration="1" name="4_r" minDur="1" state="GGGrgrgrr"/>
      <phase duration="27" name="4_g" minDur="28" state="GGGGgrgrr"/>
      <phase duration="4" name="4_y" minDur="4" state="yyyygrgrr"/>
      <phase duration="1" name="5_r" minDur="1" state="rrrrgrgrr"/>
      <phase duration="22" name="5_g" minDur="16" state="rrrrgGgrr"/>
      <phase duration="4" name="5_y" minDur="4" state="rrrrgygrr"/>
      <phase duration="34" name="1_g" minDur="34" state="rrrrgrgrr"/>
    </tlLogic>
    <tlLogic id="191235" type="static" programID="2330_2400" offset="20">
      <phase duration="1" name="2_r" minDur="1" state="rrrrgrgrr"/>
      <phase duration="31" name="2_g" minDur="28" state="GGGrgrgGG"/>
      <phase duration="28" name="3_g" minDur="28" state="GGGrgrgGG"/>
      <phase duration="4" name="3_y" minDur="4" state="GGGrgrgyy"/>
      <phase duration="1" name="4_r" minDur="1" state="GGGrgrgrr"/>
      <phase duration="27" name="4_g" minDur="28" state="GGGGgrgrr"/>
      <phase duration="4" name="4_y" minDur="4" state="yyyygrgrr"/>
      <phase duration="1" name="5_r" minDur="1" state="rrrrgrgrr"/>
      <phase duration="15" name="5_g" minDur="16" state="rrrrgGgrr"/>
      <phase duration="4" name="5_y" minDur="4" state="rrrrgygrr"/>
      <phase duration="34" name="1_g" minDur="34" state="rrrrgrgrr"/>
    </tlLogic>
    <tlLogic id="191237" type="static" programID="0000_0600" offset="39">
      <phase duration="3" name="2_r" minDur="3" state="grgrrrrgrgrrrr"/>
      <phase duration="93" name="2_g" minDur="70" state="grgGGGrgrgGGGr"/>
      <phase duration="3" name="2_y" minDur="3" state="grgyyyrgrgyyyr"/>
      <phase duration="19" name="3_g" minDur="10" state="grgrrrGgrgrrrG"/>
      <phase duration="3" name="3_y" minDur="3" state="grgrrrygrgrrry"/>
      <phase duration="1" name="1_r" minDur="1" state="grgrrrrgrgrrrr"/>
      <phase duration="34" name="1_g" minDur="35" state="gGgrrrrgGgrrrr"/>
      <phase duration="4" name="1_y" minDur="4" state="gygrrrrgygrrrr"/>
    </tlLogic>
    <tlLogic id="191237" type="static" programID="0600_0700" offset="47">
      <phase duration="3" name="2_r" minDur="3" state="grgrrrrgrgrrrr"/>
      <phase duration="101" name="2_g" minDur="70" state="grgGGGrgrgGGGr"/>
      <phase duration="3" name="2_y" minDur="3" state="grgyyyrgrgyyyr"/>
      <phase duration="21" name="3_g" minDur="10" state="grgrrrGgrgrrrG"/>
      <phase duration="3" name="3_y" minDur="3" state="grgrrrygrgrrry"/>
      <phase duration="1" name="1_r" minDur="1" state="grgrrrrgrgrrrr"/>
      <phase duration="34" name="1_g" minDur="35" state="gGgrrrrgGgrrrr"/>
      <phase duration="4" name="1_y" minDur="4" state="gygrrrrgygrrrr"/>
    </tlLogic>
    <tlLogic id="191237" type="static" programID="0700_0930" offset="55">
      <phase duration="3" name="2_r" minDur="3" state="grgrrrrgrgrrrr"/>
      <phase duration="109" name="2_g" minDur="70" state="grgGGGrgrgGGGr"/>
      <phase duration="3" name="2_y" minDur="3" state="grgyyyrgrgyyyr"/>
      <phase duration="23" name="3_g" minDur="10" state="grgrrrGgrgrrrG"/>
      <phase duration="3" name="3_y" minDur="3" state="grgrrrygrgrrry"/>
      <phase duration="1" name="1_r" minDur="1" state="grgrrrrgrgrrrr"/>
      <phase duration="34" name="1_g" minDur="35" state="gGgrrrrgGgrrrr"/>
      <phase duration="4" name="1_y" minDur="4" state="gygrrrrgygrrrr"/>
    </tlLogic>
    <tlLogic id="191237" type="static" programID="0930_1700" offset="47">
      <phase duration="3" name="2_r" minDur="3" state="grgrrrrgrgrrrr"/>
      <phase duration="101" name="2_g" minDur="70" state="grgGGGrgrgGGGr"/>
      <phase duration="3" name="2_y" minDur="3" state="grgyyyrgrgyyyr"/>
      <phase duration="21" name="3_g" minDur="10" state="grgrrrGgrgrrrG"/>
      <phase duration="3" name="3_y" minDur="3" state="grgrrrygrgrrry"/>
      <phase duration="1" name="1_r" minDur="1" state="grgrrrrgrgrrrr"/>
      <phase duration="34" name="1_g" minDur="35" state="gGgrrrrgGgrrrr"/>
      <phase duration="4" name="1_y" minDur="4" state="gygrrrrgygrrrr"/>
    </tlLogic>
    <tlLogic id="191237" type="static" programID="1700_2030" offset="55">
      <phase duration="3" name="2_r" minDur="3" state="grgrrrrgrgrrrr"/>
      <phase duration="109" name="2_g" minDur="70" state="grgGGGrgrgGGGr"/>
      <phase duration="3" name="2_y" minDur="3" state="grgyyyrgrgyyyr"/>
      <phase duration="23" name="3_g" minDur="10" state="grgrrrGgrgrrrG"/>
      <phase duration="3" name="3_y" minDur="3" state="grgrrrygrgrrry"/>
      <phase duration="1" name="1_r" minDur="1" state="grgrrrrgrgrrrr"/>
      <phase duration="34" name="1_g" minDur="35" state="gGgrrrrgGgrrrr"/>
      <phase duration="4" name="1_y" minDur="4" state="gygrrrrgygrrrr"/>
    </tlLogic>
    <tlLogic id="191237" type="static" programID="2030_2230" offset="47">
      <phase duration="3" name="2_r" minDur="3" state="grgrrrrgrgrrrr"/>
      <phase duration="101" name="2_g" minDur="70" state="grgGGGrgrgGGGr"/>
      <phase duration="3" name="2_y" minDur="3" state="grgyyyrgrgyyyr"/>
      <phase duration="21" name="3_g" minDur="10" state="grgrrrGgrgrrrG"/>
      <phase duration="3" name="3_y" minDur="3" state="grgrrrygrgrrry"/>
      <phase duration="1" name="1_r" minDur="1" state="grgrrrrgrgrrrr"/>
      <phase duration="34" name="1_g" minDur="35" state="gGgrrrrgGgrrrr"/>
      <phase duration="4" name="1_y" minDur="4" state="gygrrrrgygrrrr"/>
    </tlLogic>
    <tlLogic id="191237" type="static" programID="2230_2330" offset="39">
      <phase duration="3" name="2_r" minDur="3" state="grgrrrrgrgrrrr"/>
      <phase duration="93" name="2_g" minDur="70" state="grgGGGrgrgGGGr"/>
      <phase duration="3" name="2_y" minDur="3" state="grgyyyrgrgyyyr"/>
      <phase duration="19" name="3_g" minDur="10" state="grgrrrGgrgrrrG"/>
      <phase duration="3" name="3_y" minDur="3" state="grgrrrygrgrrry"/>
      <phase duration="1" name="1_r" minDur="1" state="grgrrrrgrgrrrr"/>
      <phase duration="34" name="1_g" minDur="35" state="gGgrrrrgGgrrrr"/>
      <phase duration="4" name="1_y" minDur="4" state="gygrrrrgygrrrr"/>
    </tlLogic>
    <tlLogic id="191237" type="static" programID="2330_2400" offset="36">
      <phase duration="3" name="2_r" minDur="3" state="grgrrrrgrgrrrr"/>
      <phase duration="85" name="2_g" minDur="70" state="grgGGGrgrgGGGr"/>
      <phase duration="3" name="2_y" minDur="3" state="grgyyyrgrgyyyr"/>
      <phase duration="17" name="3_g" minDur="10" state="grgrrrGgrgrrrG"/>
      <phase duration="3" name="3_y" minDur="3" state="grgrrrygrgrrry"/>
      <phase duration="1" name="1_r" minDur="1" state="grgrrrrgrgrrrr"/>
      <phase duration="34" name="1_g" minDur="35" state="gGgrrrrgGgrrrr"/>
      <phase duration="4" name="1_y" minDur="4" state="gygrrrrgygrrrr"/>
    </tlLogic>
    <tlLogic id="191249" type="static" programID="0000_0600" offset="29">
      <phase duration="1" name="2_r" minDur="1" state="grrrgrrrrgrrrgrrrr"/>
      <phase duration="53" name="2_g" minDur="36" state="grrrgGGGrgrrrgGGGr"/>
      <phase duration="4" name="2_y" minDur="4" state="grrrgyyyrgrrrgyyyr"/>
      <phase duration="1" name="3_r" minDur="1" state="grrrgrrrrgrrrgrrrr"/>
      <phase duration="8" name="3_g" minDur="7" state="grrrgrrrGgrrrgrrrG"/>
      <phase duration="13" name="4_g" minDur="13" state="grrrgrrrGgrrrgrrrG"/>
      <phase duration="4" name="4_y" minDur="4" state="grrrgrrrygrrrgrrry"/>
      <phase duration="1" name="5_r" minDur="1" state="grrrgrrrrgrrrgrrrr"/>
      <phase duration="33" name="5_g" minDur="34" state="grrrgrrrrgGGGgrrrr"/>
      <phase duration="4" name="5_y" minDur="4" state="grrrgrrrrgyyygrrrr"/>
      <phase duration="1" name="1_r" minDur="1" state="grrrgrrrrgrrrgrrrr"/>
      <phase duration="33" name="1_g" minDur="34" state="gGGGgrrrrgrrrgrrrr"/>
      <phase duration="4" name="1_y" minDur="4" state="gyyygrrrrgrrrgrrrr"/>
    </tlLogic>
    <tlLogic id="191249" type="static" programID="0600_0700" offset="42">
      <phase duration="1" name="2_r" minDur="1" state="grrrgrrrrgrrrgrrrr"/>
      <phase duration="61" name="2_g" minDur="36" state="grrrgGGGrgrrrgGGGr"/>
      <phase duration="4" name="2_y" minDur="4" state="grrrgyyyrgrrrgyyyr"/>
      <phase duration="1" name="3_r" minDur="1" state="grrrgrrrrgrrrgrrrr"/>
      <phase duration="10" name="3_g" minDur="7" state="grrrgrrrGgrrrgrrrG"/>
      <phase duration="13" name="4_g" minDur="13" state="grrrgrrrGgrrrgrrrG"/>
      <phase duration="4" name="4_y" minDur="4" state="grrrgrrrygrrrgrrry"/>
      <phase duration="1" name="5_r" minDur="1" state="grrrgrrrrgrrrgrrrr"/>
      <phase duration="33" name="5_g" minDur="34" state="grrrgrrrrgGGGgrrrr"/>
      <phase duration="4" name="5_y" minDur="4" state="grrrgrrrrgyyygrrrr"/>
      <phase duration="1" name="1_r" minDur="1" state="grrrgrrrrgrrrgrrrr"/>
      <phase duration="33" name="1_g" minDur="34" state="gGGGgrrrrgrrrgrrrr"/>
      <phase duration="4" name="1_y" minDur="4" state="gyyygrrrrgrrrgrrrr"/>
    </tlLogic>
    <tlLogic id="191249" type="static" programID="0700_0930" offset="55">
      <phase duration="1" name="2_r" minDur="1" state="grrrgrrrrgrrrgrrrr"/>
      <phase duration="69" name="2_g" minDur="36" state="grrrgGGGrgrrrgGGGr"/>
      <phase duration="4" name="2_y" minDur="4" state="grrrgyyyrgrrrgyyyr"/>
      <phase duration="1" name="3_r" minDur="1" state="grrrgrrrrgrrrgrrrr"/>
      <phase duration="12" name="3_g" minDur="7" state="grrrgrrrGgrrrgrrrG"/>
      <phase duration="13" name="4_g" minDur="13" state="grrrgrrrGgrrrgrrrG"/>
      <phase duration="4" name="4_y" minDur="4" state="grrrgrrrygrrrgrrry"/>
      <phase duration="1" name="5_r" minDur="1" state="grrrgrrrrgrrrgrrrr"/>
      <phase duration="33" name="5_g" minDur="34" state="grrrgrrrrgGGGgrrrr"/>
      <phase duration="4" name="5_y" minDur="4" state="grrrgrrrrgyyygrrrr"/>
      <phase duration="1" name="1_r" minDur="1" state="grrrgrrrrgrrrgrrrr"/>
      <phase duration="33" name="1_g" minDur="34" state="gGGGgrrrrgrrrgrrrr"/>
      <phase duration="4" name="1_y" minDur="4" state="gyyygrrrrgrrrgrrrr"/>
    </tlLogic>
    <tlLogic id="191249" type="static" programID="0930_1700" offset="42">
      <phase duration="1" name="2_r" minDur="1" state="grrrgrrrrgrrrgrrrr"/>
      <phase duration="61" name="2_g" minDur="36" state="grrrgGGGrgrrrgGGGr"/>
      <phase duration="4" name="2_y" minDur="4" state="grrrgyyyrgrrrgyyyr"/>
      <phase duration="1" name="3_r" minDur="1" state="grrrgrrrrgrrrgrrrr"/>
      <phase duration="10" name="3_g" minDur="7" state="grrrgrrrGgrrrgrrrG"/>
      <phase duration="13" name="4_g" minDur="13" state="grrrgrrrGgrrrgrrrG"/>
      <phase duration="4" name="4_y" minDur="4" state="grrrgrrrygrrrgrrry"/>
      <phase duration="1" name="5_r" minDur="1" state="grrrgrrrrgrrrgrrrr"/>
      <phase duration="33" name="5_g" minDur="34" state="grrrgrrrrgGGGgrrrr"/>
      <phase duration="4" name="5_y" minDur="4" state="grrrgrrrrgyyygrrrr"/>
      <phase duration="1" name="1_r" minDur="1" state="grrrgrrrrgrrrgrrrr"/>
      <phase duration="33" name="1_g" minDur="34" state="gGGGgrrrrgrrrgrrrr"/>
      <phase duration="4" name="1_y" minDur="4" state="gyyygrrrrgrrrgrrrr"/>
    </tlLogic>
    <tlLogic id="191249" type="static" programID="1700_2030" offset="55">
      <phase duration="1" name="2_r" minDur="1" state="grrrgrrrrgrrrgrrrr"/>
      <phase duration="69" name="2_g" minDur="36" state="grrrgGGGrgrrrgGGGr"/>
      <phase duration="4" name="2_y" minDur="4" state="grrrgyyyrgrrrgyyyr"/>