<?xml version="1.0" encoding="UTF-8"?>

<!-- generated on 2022-03-22 13:38:39 by Eclipse SUMO netedit Version 1.11.0
<configuration xmlns:xsi="http://www.w3.org/2001/XMLSchema-instance" xsi:noNamespaceSchemaLocation="http://sumo.dlr.de/xsd/netconvertConfiguration.xsd">

    <input>
        <sumo-net-file value="anyang_20220222_ver02.net.xml"/>
    </input>

    <output>
        <output-file value="D:\new\anyang_20220222_ver03.net.xml"/>
    </output>

    <processing>
        <geometry.min-radius.fix.railways value="false"/>
        <geometry.max-grade.fix value="false"/>
        <offset.disable-normalization value="true"/>
        <lefthand value="false"/>
    </processing>

    <building_defaults>
        <default.spreadtype value="roadCenter"/>
    </building_defaults>

    <junctions>
        <no-turnarounds value="true"/>
        <junctions.corner-detail value="5"/>
        <junctions.limit-turn-speed value="5.5"/>
        <rectangular-lane-cut value="false"/>
    </junctions>

    <pedestrian>
        <walkingareas value="false"/>
    </pedestrian>

    <report>
        <aggregate-warnings value="5"/>
    </report>

</configuration>
-->

<net version="1.9" spreadType="roadCenter" junctionCornerDetail="5" limitTurnSpeed="5.50" xmlns:xsi="http://www.w3.org/2001/XMLSchema-instance" xsi:noNamespaceSchemaLocation="http://sumo.dlr.de/xsd/net_file.xsd">

    <location netOffset="-309610.94,-4136582.11" convBoundary="8720.86,3396.38,10595.88,4289.88" origBoundary="126.847943,37.358348,127.025182,37.461685" projParameter="+proj=utm +zone=52 +ellps=WGS84 +datum=WGS84 +units=m +no_defs"/>

    <type id="47750220801_type" numLanes="5" speed="27.78"/>
    <type id="47750222801_type" numLanes="5" speed="27.78"/>
    <type id="47750226101_type" numLanes="4" speed="27.78"/>
    <type id="47750226501_type" numLanes="4" speed="27.78"/>
    <type id="47750390501_type" numLanes="5" speed="27.78"/>
    <type id="47750399201_type" numLanes="2" speed="13.89"/>
    <type id="47750400301_type" numLanes="4" speed="27.78"/>
    <type id="47750400701_type" numLanes="4" speed="27.78"/>
    <type id="47750402101_type" numLanes="4" speed="27.78"/>
    <type id="47750403501_type" numLanes="3" speed="27.78"/>
    <type id="47750404201_type" numLanes="1" speed="13.89"/>
    <type id="47750404501_type" numLanes="2" speed="13.89"/>
    <type id="47750405001_type" numLanes="2" speed="13.89"/>
    <type id="47750405401_type" numLanes="3" speed="13.89"/>
    <type id="47750408701_type" numLanes="2" speed="13.89"/>
    <type id="47750408801_type" numLanes="1" speed="13.89"/>
    <type id="47750409201_type" numLanes="1" speed="13.89"/>
    <type id="47750409301_type" numLanes="1" speed="13.89"/>
    <type id="47750413801_type" numLanes="3" speed="13.89"/>
    <type id="47750417901_type" numLanes="3" speed="27.78"/>
    <type id="47750418201_type" numLanes="2" speed="13.89"/>
    <type id="47750418801_type" numLanes="2" speed="13.89"/>
    <type id="47754188101_type" numLanes="1" speed="13.89"/>
    <type id="47754189501_type" numLanes="1" speed="13.89"/>
    <type id="47754238701_type" numLanes="1" speed="11.11"/>
    <type id="47754238702_type" numLanes="1" speed="11.11"/>
    <type id="47754254601_type" numLanes="1" speed="22.22"/>
    <type id="47754254701_type" numLanes="2" speed="13.89"/>
    <type id="47754360901_type" numLanes="2" speed="13.89"/>
    <type id="47754361101_type" numLanes="2" speed="13.89"/>
    <type id="47754361301_type" numLanes="2" speed="13.89"/>
    <type id="47754361302_type" numLanes="2" speed="13.89"/>
    <type id="47754388001_type" numLanes="1" speed="16.67"/>
    <type id="47754388301_type" numLanes="2" speed="16.67"/>
    <type id="47754388302_type" numLanes="2" speed="16.67"/>
    <type id="47754388401_type" numLanes="2" speed="16.67"/>
    <type id="47754388402_type" numLanes="2" speed="16.67"/>
    <type id="47754416301_type" numLanes="2" speed="13.89"/>
    <type id="47754416302_type" numLanes="2" speed="13.89"/>
    <type id="47754416401_type" numLanes="2" speed="13.89"/>
    <type id="47754416501_type" numLanes="1" speed="13.89"/>
    <type id="47754617301_type" numLanes="1" speed="11.11"/>
    <type id="47754617302_type" numLanes="1" speed="11.11"/>
    <type id="47754704801_type" numLanes="1" speed="13.89"/>
    <type id="47754802401_type" numLanes="1" speed="13.89"/>
    <type id="47754802402_type" numLanes="1" speed="13.89"/>
    <type id="47754832801_type" numLanes="5" speed="27.78"/>
    <type id="47754833001_type" numLanes="1" speed="13.89"/>
    <type id="47754833201_type" numLanes="1" speed="13.89"/>
    <type id="47754833401_type" numLanes="4" speed="27.78"/>
    <type id="47754833601_type" numLanes="4" speed="27.78"/>
    <type id="47754890301_type" numLanes="2" speed="22.22"/>
    <type id="47754890501_type" numLanes="2" speed="22.22"/>
    <type id="47755006801_type" numLanes="1" speed="13.89"/>
    <type id="47755008601_type" numLanes="2" speed="13.89"/>
    <type id="47755008801_type" numLanes="1" speed="13.89"/>
    <type id="47755009001_type" numLanes="1" speed="13.89"/>
    <type id="47755009201_type" numLanes="1" speed="13.89"/>
    <type id="47755009401_type" numLanes="2" speed="25.00"/>
    <type id="47755404401_type" numLanes="2" speed="13.89"/>
    <type id="47755404601_type" numLanes="5" speed="27.78"/>
    <type id="47755404801_type" numLanes="3" speed="27.78"/>
    <type id="47755475801_type" numLanes="2" speed="25.00"/>
    <type id="47755535201_type" numLanes="4" speed="27.78"/>
    <type id="47755535301_type" numLanes="4" speed="27.78"/>
    <type id="47755535401_type" numLanes="4" speed="27.78"/>
    <type id="47755548101_type" numLanes="1" speed="13.89"/>
    <type id="47760576601_type" numLanes="3" speed="27.78"/>
    <type id="47764336901_type" numLanes="3" speed="27.78"/>
    <type id="47764337001_type" numLanes="3" speed="27.78"/>
    <type id="47764337101_type" numLanes="3" speed="27.78"/>
    <type id="47764337201_type" numLanes="3" speed="27.78"/>
    <type id="47764353501_type" numLanes="2" speed="13.89"/>
    <type id="47850288701_type" numLanes="2" speed="13.89"/>
    <type id="47850288702_type" numLanes="2" speed="13.89"/>
    <type id="47850289301_type" numLanes="1" speed="13.89"/>
    <type id="47850289302_type" numLanes="1" speed="13.89"/>
    <type id="47850289901_type" numLanes="1" speed="13.89"/>
    <type id="47850289902_type" numLanes="1" speed="13.89"/>
    <type id="47850290901_type" numLanes="2" speed="16.67"/>
    <type id="47850290902_type" numLanes="2" speed="16.67"/>
    <type id="47850291001_type" numLanes="1" speed="13.89"/>
    <type id="47850291002_type" numLanes="1" speed="13.89"/>
    <type id="47850291201_type" numLanes="1" speed="13.89"/>
    <type id="47850291202_type" numLanes="1" speed="13.89"/>
    <type id="47850291301_type" numLanes="1" speed="13.89"/>
    <type id="47850291302_type" numLanes="1" speed="13.89"/>
    <type id="47850294201_type" numLanes="1" speed="13.89"/>
    <type id="47850294202_type" numLanes="1" speed="13.89"/>
    <type id="47850302201_type" numLanes="1" speed="13.89"/>
    <type id="47850302202_type" numLanes="1" speed="13.89"/>
    <type id="47850303701_type" numLanes="1" speed="13.89"/>
    <type id="47850303702_type" numLanes="1" speed="13.89"/>
    <type id="47850304201_type" numLanes="1" speed="13.89"/>
    <type id="47850304202_type" numLanes="1" speed="13.89"/>
    <type id="47850304301_type" numLanes="1" speed="13.89"/>
    <type id="47850304302_type" numLanes="1" speed="13.89"/>
    <type id="47850305801_type" numLanes="1" speed="13.89"/>
    <type id="47850305802_type" numLanes="1" speed="13.89"/>
    <type id="47850306201_type" numLanes="1" speed="13.89"/>
    <type id="47850306202_type" numLanes="1" speed="13.89"/>
    <type id="47850306301_type" numLanes="1" speed="13.89"/>
    <type id="47850306302_type" numLanes="1" speed="13.89"/>
    <type id="47850307001_type" numLanes="1" speed="13.89"/>
    <type id="47850307002_type" numLanes="1" speed="13.89"/>
    <type id="47850307201_type" numLanes="1" speed="13.89"/>
    <type id="47850307202_type" numLanes="1" speed="13.89"/>
    <type id="47850307701_type" numLanes="1" speed="13.89"/>
    <type id="47850307702_type" numLanes="1" speed="13.89"/>
    <type id="47850308401_type" numLanes="2" speed="11.11"/>
    <type id="47850308402_type" numLanes="2" speed="11.11"/>
    <type id="47850310101_type" numLanes="1" speed="13.89"/>
    <type id="47850310102_type" numLanes="1" speed="13.89"/>
    <type id="47850310501_type" numLanes="1" speed="11.11"/>
    <type id="47850310502_type" numLanes="1" speed="11.11"/>
    <type id="47850315501_type" numLanes="1" speed="11.11"/>
    <type id="47850315502_type" numLanes="1" speed="11.11"/>
    <type id="47850317801_type" numLanes="1" speed="11.11"/>
    <type id="47850317802_type" numLanes="1" speed="11.11"/>
    <type id="47850319401_type" numLanes="1" speed="13.89"/>
    <type id="47850319402_type" numLanes="1" speed="13.89"/>
    <type id="47850320801_type" numLanes="2" speed="16.67"/>
    <type id="47850320802_type" numLanes="2" speed="16.67"/>
    <type id="47850321101_type" numLanes="1" speed="13.89"/>
    <type id="47850321102_type" numLanes="1" speed="13.89"/>
    <type id="47850324801_type" numLanes="1" speed="13.89"/>
    <type id="47850324802_type" numLanes="1" speed="13.89"/>
    <type id="47850325701_type" numLanes="2" speed="13.89"/>
    <type id="47850325702_type" numLanes="2" speed="13.89"/>
    <type id="47850330001_type" numLanes="1" speed="13.89"/>
    <type id="47850330002_type" numLanes="1" speed="13.89"/>
    <type id="47850330101_type" numLanes="1" speed="13.89"/>
    <type id="47850330102_type" numLanes="1" speed="13.89"/>
    <type id="47850336701_type" numLanes="2" speed="13.89"/>
    <type id="47850336702_type" numLanes="2" speed="13.89"/>
    <type id="47850338301_type" numLanes="1" speed="11.11"/>
    <type id="47850338302_type" numLanes="1" speed="11.11"/>
    <type id="47850342001_type" numLanes="1" speed="13.89"/>
    <type id="47850342002_type" numLanes="1" speed="13.89"/>
    <type id="47850350801_type" numLanes="1" speed="11.11"/>
    <type id="47850350802_type" numLanes="1" speed="11.11"/>
    <type id="47850355401_type" numLanes="1" speed="13.89"/>
    <type id="47850355402_type" numLanes="1" speed="13.89"/>
    <type id="47850356901_type" numLanes="1" speed="13.89"/>
    <type id="47850356902_type" numLanes="1" speed="13.89"/>
    <type id="47850357101_type" numLanes="4" speed="13.89"/>
    <type id="47850357102_type" numLanes="4" speed="13.89"/>
    <type id="47850358601_type" numLanes="1" speed="11.11"/>
    <type id="47850358602_type" numLanes="1" speed="11.11"/>
    <type id="47850358701_type" numLanes="1" speed="11.11"/>
    <type id="47850358702_type" numLanes="1" speed="11.11"/>
    <type id="47850358801_type" numLanes="1" speed="13.89"/>
    <type id="47850358802_type" numLanes="1" speed="13.89"/>
    <type id="47850359301_type" numLanes="2" speed="16.67"/>
    <type id="47850359302_type" numLanes="2" speed="16.67"/>
    <type id="47850362201_type" numLanes="2" speed="13.89"/>
    <type id="47850362202_type" numLanes="2" speed="13.89"/>
    <type id="47850365601_type" numLanes="1" speed="13.89"/>
    <type id="47850365602_type" numLanes="1" speed="13.89"/>
    <type id="47850366001_type" numLanes="1" speed="16.67"/>
    <type id="47850366002_type" numLanes="1" speed="16.67"/>
    <type id="47850367801_type" numLanes="2" speed="16.67"/>
    <type id="47850367802_type" numLanes="2" speed="16.67"/>
    <type id="47850367901_type" numLanes="2" speed="16.67"/>
    <type id="47850367902_type" numLanes="2" speed="16.67"/>
    <type id="47850368001_type" numLanes="2" speed="16.67"/>
    <type id="47850368002_type" numLanes="2" speed="16.67"/>
    <type id="47850369201_type" numLanes="2" speed="16.67"/>
    <type id="47850369202_type" numLanes="2" speed="16.67"/>
    <type id="47850369301_type" numLanes="2" speed="16.67"/>
    <type id="47850369302_type" numLanes="2" speed="16.67"/>
    <type id="47850369401_type" numLanes="2" speed="13.89"/>
    <type id="47850369402_type" numLanes="2" speed="13.89"/>
    <type id="47850369501_type" numLanes="2" speed="16.67"/>
    <type id="47850369502_type" numLanes="2" speed="16.67"/>
    <type id="47850369801_type" numLanes="2" speed="19.44"/>
    <type id="47850369802_type" numLanes="2" speed="19.44"/>
    <type id="47850375201_type" numLanes="2" speed="16.67"/>
    <type id="47850375202_type" numLanes="2" speed="16.67"/>
    <type id="47850376301_type" numLanes="2" speed="13.89"/>
    <type id="47850376302_type" numLanes="2" speed="13.89"/>
    <type id="47850376801_type" numLanes="2" speed="13.89"/>
    <type id="47850376802_type" numLanes="2" speed="13.89"/>
    <type id="47850381001_type" numLanes="2" speed="16.67"/>
    <type id="47850381002_type" numLanes="2" speed="16.67"/>
    <type id="47850382901_type" numLanes="2" speed="16.67"/>
    <type id="47850382902_type" numLanes="2" speed="16.67"/>
    <type id="47850383001_type" numLanes="3" speed="13.89"/>
    <type id="47850383002_type" numLanes="2" speed="13.89"/>
    <type id="47850384201_type" numLanes="2" speed="13.89"/>
    <type id="47850384202_type" numLanes="2" speed="13.89"/>
    <type id="47850384301_type" numLanes="2" speed="13.89"/>
    <type id="47850384302_type" numLanes="2" speed="13.89"/>
    <type id="47850384401_type" numLanes="2" speed="16.67"/>
    <type id="47850384402_type" numLanes="2" speed="16.67"/>
    <type id="47850389201_type" numLanes="2" speed="19.44"/>
    <type id="47850389202_type" numLanes="2" speed="19.44"/>
    <type id="47850389401_type" numLanes="2" speed="13.89"/>
    <type id="47850389402_type" numLanes="2" speed="13.89"/>
    <type id="47850391801_type" numLanes="2" speed="13.89"/>
    <type id="47850394401_type" numLanes="3" speed="16.67"/>
    <type id="47850394402_type" numLanes="3" speed="16.67"/>
    <type id="47850397401_type" numLanes="2" speed="16.67"/>
    <type id="47850397402_type" numLanes="2" speed="16.67"/>
    <type id="47850397501_type" numLanes="1" speed="13.89"/>
    <type id="47850398301_type" numLanes="2" speed="13.89"/>
    <type id="47850406701_type" numLanes="2" speed="16.67"/>
    <type id="47850406702_type" numLanes="2" speed="16.67"/>
    <type id="47850472401_type" numLanes="3" speed="13.89"/>
    <type id="47850472402_type" numLanes="3" speed="13.89"/>
    <type id="47850473401_type" numLanes="3" speed="13.89"/>
    <type id="47850473402_type" numLanes="3" speed="13.89"/>
    <type id="47850473901_type" numLanes="4" speed="13.89"/>
    <type id="47850473902_type" numLanes="4" speed="13.89"/>
    <type id="47850474201_type" numLanes="4" speed="16.67"/>
    <type id="47850474202_type" numLanes="3" speed="16.67"/>
    <type id="47850474701_type" numLanes="4" speed="13.89"/>
    <type id="47850474702_type" numLanes="4" speed="13.89"/>
    <type id="47850475601_type" numLanes="3" speed="16.67"/>
    <type id="47850475602_type" numLanes="3" speed="16.67"/>
    <type id="47850475801_type" numLanes="3" speed="19.44"/>
    <type id="47850475802_type" numLanes="3" speed="19.44"/>
    <type id="47850476201_type" numLanes="4" speed="19.44"/>
    <type id="47850476202_type" numLanes="4" speed="19.44"/>
    <type id="47850476401_type" numLanes="3" speed="13.89"/>
    <type id="47850476402_type" numLanes="3" speed="13.89"/>
    <type id="47850476901_type" numLanes="3" speed="13.89"/>
    <type id="47850476902_type" numLanes="3" speed="13.89"/>
    <type id="47850477001_type" numLanes="3" speed="19.44"/>
    <type id="47850477002_type" numLanes="3" speed="19.44"/>
    <type id="47850477501_type" numLanes="3" speed="13.89"/>
    <type id="47850477502_type" numLanes="3" speed="13.89"/>
    <type id="47850478201_type" numLanes="4" speed="13.89"/>
    <type id="47850478202_type" numLanes="4" speed="13.89"/>
    <type id="47850479301_type" numLanes="1" speed="13.89"/>
    <type id="47850479401_type" numLanes="3" speed="13.89"/>
    <type id="47850479402_type" numLanes="3" speed="13.89"/>
    <type id="47850479801_type" numLanes="4" speed="13.89"/>
    <type id="47850479802_type" numLanes="4" speed="13.89"/>
    <type id="47850480001_type" numLanes="3" speed="13.89"/>
    <type id="47850480002_type" numLanes="3" speed="13.89"/>
    <type id="47850481001_type" numLanes="3" speed="13.89"/>
    <type id="47850481002_type" numLanes="3" speed="13.89"/>
    <type id="47850481901_type" numLanes="3" speed="16.67"/>
    <type id="47850481902_type" numLanes="3" speed="16.67"/>
    <type id="47850482001_type" numLanes="3" speed="13.89"/>
    <type id="47850482002_type" numLanes="3" speed="13.89"/>
    <type id="47850482201_type" numLanes="1" speed="8.33"/>
    <type id="47850482601_type" numLanes="3" speed="16.67"/>
    <type id="47850482602_type" numLanes="3" speed="16.67"/>
    <type id="47850482801_type" numLanes="4" speed="13.89"/>
    <type id="47850482802_type" numLanes="4" speed="13.89"/>
    <type id="47850483301_type" numLanes="3" speed="16.67"/>
    <type id="47850483302_type" numLanes="3" speed="16.67"/>
    <type id="47850484401_type" numLanes="3" speed="16.67"/>
    <type id="47850484402_type" numLanes="3" speed="16.67"/>
    <type id="47850486601_type" numLanes="4" speed="16.67"/>
    <type id="47850486602_type" numLanes="4" speed="16.67"/>
    <type id="47850487301_type" numLanes="3" speed="13.89"/>
    <type id="47850487302_type" numLanes="3" speed="13.89"/>
    <type id="47850487801_type" numLanes="3" speed="16.67"/>
    <type id="47850487802_type" numLanes="3" speed="16.67"/>
    <type id="47850488101_type" numLanes="3" speed="13.89"/>
    <type id="47850488102_type" numLanes="3" speed="13.89"/>
    <type id="47850489701_type" numLanes="4" speed="13.89"/>
    <type id="47850489702_type" numLanes="4" speed="13.89"/>
    <type id="47850490301_type" numLanes="3" speed="16.67"/>
    <type id="47850490302_type" numLanes="3" speed="16.67"/>
    <type id="47850490801_type" numLanes="2" speed="16.67"/>
    <type id="47850490901_type" numLanes="4" speed="13.89"/>
    <type id="47850490902_type" numLanes="4" speed="13.89"/>
    <type id="47850492301_type" numLanes="3" speed="13.89"/>
    <type id="47850492302_type" numLanes="3" speed="13.89"/>
    <type id="47850493301_type" numLanes="3" speed="16.67"/>
    <type id="47850493302_type" numLanes="3" speed="16.67"/>
    <type id="47850493401_type" numLanes="3" speed="13.89"/>
    <type id="47850493402_type" numLanes="3" speed="13.89"/>
    <type id="47850494401_type" numLanes="3" speed="16.67"/>
    <type id="47850494402_type" numLanes="3" speed="16.67"/>
    <type id="47850494601_type" numLanes="3" speed="11.11"/>
    <type id="47850494602_type" numLanes="3" speed="11.11"/>
    <type id="47850495501_type" numLanes="3" speed="16.67"/>
    <type id="47850495502_type" numLanes="3" speed="16.67"/>
    <type id="47850495901_type" numLanes="4" speed="13.89"/>
    <type id="47850495902_type" numLanes="4" speed="13.89"/>
    <type id="47850496701_type" numLanes="3" speed="11.11"/>
    <type id="47850496702_type" numLanes="3" speed="11.11"/>
    <type id="47850499501_type" numLanes="3" speed="16.67"/>
    <type id="47850499502_type" numLanes="3" speed="16.67"/>
    <type id="47850500201_type" numLanes="3" speed="13.89"/>
    <type id="47850500202_type" numLanes="3" speed="13.89"/>
    <type id="47850500701_type" numLanes="3" speed="13.89"/>
    <type id="47850500702_type" numLanes="3" speed="13.89"/>
    <type id="47850501101_type" numLanes="3" speed="19.44"/>
    <type id="47850501102_type" numLanes="3" speed="19.44"/>
    <type id="47850501401_type" numLanes="3" speed="13.89"/>
    <type id="47850501402_type" numLanes="3" speed="13.89"/>
    <type id="47850501601_type" numLanes="3" speed="13.89"/>
    <type id="47850501602_type" numLanes="3" speed="13.89"/>
    <type id="47850502501_type" numLanes="3" speed="13.89"/>
    <type id="47850502502_type" numLanes="3" speed="13.89"/>
    <type id="47850504001_type" numLanes="3" speed="13.89"/>
    <type id="47850504002_type" numLanes="3" speed="13.89"/>
    <type id="47850505101_type" numLanes="4" speed="13.89"/>
    <type id="47850505102_type" numLanes="4" speed="13.89"/>
    <type id="47850507001_type" numLanes="3" speed="16.67"/>
    <type id="47850507002_type" numLanes="3" speed="16.67"/>
    <type id="47850507301_type" numLanes="3" speed="13.89"/>
    <type id="47850507302_type" numLanes="3" speed="13.89"/>
    <type id="47850507401_type" numLanes="3" speed="16.67"/>
    <type id="47850507402_type" numLanes="3" speed="16.67"/>
    <type id="47850507901_type" numLanes="3" speed="13.89"/>
    <type id="47850507902_type" numLanes="3" speed="13.89"/>
    <type id="47850508601_type" numLanes="3" speed="13.89"/>
    <type id="47850508602_type" numLanes="3" speed="13.89"/>
    <type id="47850509301_type" numLanes="4" speed="13.89"/>
    <type id="47850509302_type" numLanes="4" speed="13.89"/>
    <type id="47850509401_type" numLanes="3" speed="13.89"/>
    <type id="47850509402_type" numLanes="3" speed="13.89"/>
    <type id="47850511001_type" numLanes="4" speed="13.89"/>
    <type id="47850511002_type" numLanes="4" speed="13.89"/>
    <type id="47850511401_type" numLanes="3" speed="13.89"/>
    <type id="47850511402_type" numLanes="3" speed="13.89"/>
    <type id="47850511901_type" numLanes="3" speed="13.89"/>
    <type id="47850511902_type" numLanes="3" speed="13.89"/>
    <type id="47850512101_type" numLanes="4" speed="13.89"/>
    <type id="47850512102_type" numLanes="4" speed="13.89"/>
    <type id="47850513101_type" numLanes="3" speed="13.89"/>
    <type id="47850513102_type" numLanes="3" speed="13.89"/>
    <type id="47850513301_type" numLanes="3" speed="16.67"/>
    <type id="47850513302_type" numLanes="3" speed="16.67"/>
    <type id="47850514401_type" numLanes="1" speed="13.89"/>
    <type id="47850514801_type" numLanes="3" speed="13.89"/>
    <type id="47850514802_type" numLanes="3" speed="13.89"/>
    <type id="47850515201_type" numLanes="4" speed="13.89"/>
    <type id="47850515202_type" numLanes="4" speed="13.89"/>
    <type id="47850515301_type" numLanes="3" speed="13.89"/>
    <type id="47850515302_type" numLanes="2" speed="13.89"/>
    <type id="47850515701_type" numLanes="1" speed="13.89"/>
    <type id="47850515801_type" numLanes="1" speed="8.33"/>
    <type id="47850516801_type" numLanes="1" speed="13.89"/>
    <type id="47850516901_type" numLanes="1" speed="8.33"/>
    <type id="47850517601_type" numLanes="3" speed="13.89"/>
    <type id="47850517602_type" numLanes="3" speed="13.89"/>
    <type id="47850518001_type" numLanes="3" speed="13.89"/>
    <type id="47850518002_type" numLanes="3" speed="13.89"/>
    <type id="47850520401_type" numLanes="4" speed="13.89"/>
    <type id="47850520402_type" numLanes="4" speed="13.89"/>
    <type id="47850522801_type" numLanes="1" speed="11.11"/>
    <type id="47850523001_type" numLanes="3" speed="11.11"/>
    <type id="47850523002_type" numLanes="2" speed="11.11"/>
    <type id="47850523101_type" numLanes="1" speed="11.11"/>
    <type id="47850523201_type" numLanes="2" speed="16.67"/>
    <type id="47850523202_type" numLanes="2" speed="16.67"/>
    <type id="47850525601_type" numLanes="3" speed="19.44"/>
    <type id="47850525602_type" numLanes="3" speed="19.44"/>
    <type id="47850525801_type" numLanes="3" speed="16.67"/>
    <type id="47850525802_type" numLanes="3" speed="16.67"/>
    <type id="47850533001_type" numLanes="3" speed="13.89"/>
    <type id="47850533002_type" numLanes="3" speed="13.89"/>
    <type id="47850534401_type" numLanes="4" speed="16.67"/>
    <type id="47850534402_type" numLanes="4" speed="16.67"/>
    <type id="47850534501_type" numLanes="4" speed="13.89"/>
    <type id="47850534502_type" numLanes="4" speed="13.89"/>
    <type id="47850535501_type" numLanes="4" speed="16.67"/>
    <type id="47850535502_type" numLanes="4" speed="16.67"/>
    <type id="47850536601_type" numLanes="1" speed="13.89"/>
    <type id="47850536901_type" numLanes="1" speed="11.11"/>
    <type id="47850537001_type" numLanes="1" speed="11.11"/>
    <type id="47850539801_type" numLanes="4" speed="16.67"/>
    <type id="47850539802_type" numLanes="4" speed="16.67"/>
    <type id="47850539901_type" numLanes="3" speed="13.89"/>
    <type id="47850539902_type" numLanes="3" speed="13.89"/>
    <type id="47850540401_type" numLanes="1" speed="13.89"/>
    <type id="47850541801_type" numLanes="4" speed="13.89"/>
    <type id="47850541802_type" numLanes="4" speed="13.89"/>
    <type id="47850542801_type" numLanes="4" speed="13.89"/>
    <type id="47850542802_type" numLanes="4" speed="13.89"/>
    <type id="47850542901_type" numLanes="3" speed="16.67"/>
    <type id="47850542902_type" numLanes="3" speed="16.67"/>
    <type id="47850543401_type" numLanes="3" speed="16.67"/>
    <type id="47850543402_type" numLanes="3" speed="16.67"/>
    <type id="47850544001_type" numLanes="3" speed="16.67"/>
    <type id="47850544002_type" numLanes="3" speed="16.67"/>
    <type id="47850545101_type" numLanes="3" speed="13.89"/>
    <type id="47850545102_type" numLanes="3" speed="13.89"/>
    <type id="47850545701_type" numLanes="1" speed="13.89"/>
    <type id="47850545801_type" numLanes="1" speed="13.89"/>
    <type id="47850545901_type" numLanes="4" speed="13.89"/>
    <type id="47850545902_type" numLanes="3" speed="13.89"/>
    <type id="47850546101_type" numLanes="3" speed="13.89"/>
    <type id="47850546102_type" numLanes="3" speed="13.89"/>
    <type id="47850546301_type" numLanes="2" speed="16.67"/>
    <type id="47850546302_type" numLanes="2" speed="16.67"/>
    <type id="47850547001_type" numLanes="3" speed="13.89"/>
    <type id="47850547002_type" numLanes="3" speed="13.89"/>
    <type id="47850547201_type" numLanes="3" speed="13.89"/>
    <type id="47850547202_type" numLanes="3" speed="13.89"/>
    <type id="47850547701_type" numLanes="3" speed="13.89"/>
    <type id="47850547702_type" numLanes="3" speed="13.89"/>
    <type id="47850548101_type" numLanes="3" speed="13.89"/>
    <type id="47850548102_type" numLanes="3" speed="13.89"/>
    <type id="47850550201_type" numLanes="2" speed="16.67"/>
    <type id="47850550202_type" numLanes="2" speed="16.67"/>
    <type id="47850555001_type" numLanes="4" speed="13.89"/>
    <type id="47850555101_type" numLanes="4" speed="13.89"/>
    <type id="47850555401_type" numLanes="5" speed="13.89"/>
    <type id="47850556901_type" numLanes="2" speed="13.89"/>
    <type id="47850557901_type" numLanes="4" speed="13.89"/>
    <type id="47850557902_type" numLanes="4" speed="13.89"/>
    <type id="47850559401_type" numLanes="1" speed="13.89"/>
    <type id="47850562101_type" numLanes="3" speed="19.44"/>
    <type id="47850562102_type" numLanes="3" speed="19.44"/>
    <type id="47850562201_type" numLanes="3" speed="16.67"/>
    <type id="47850562202_type" numLanes="3" speed="16.67"/>
    <type id="47850562701_type" numLanes="3" speed="16.67"/>
    <type id="47850562702_type" numLanes="3" speed="16.67"/>
    <type id="47850562801_type" numLanes="3" speed="13.89"/>
    <type id="47850562802_type" numLanes="3" speed="13.89"/>
    <type id="47850562901_type" numLanes="4" speed="13.89"/>
    <type id="47850562902_type" numLanes="4" speed="13.89"/>
    <type id="47850563901_type" numLanes="3" speed="13.89"/>
    <type id="47850563902_type" numLanes="3" speed="13.89"/>
    <type id="47850565901_type" numLanes="3" speed="19.44"/>
    <type id="47850565902_type" numLanes="3" speed="19.44"/>
    <type id="47850570001_type" numLanes="3" speed="13.89"/>
    <type id="47850570002_type" numLanes="3" speed="13.89"/>
    <type id="47850572601_type" numLanes="3" speed="13.89"/>
    <type id="47850572602_type" numLanes="2" speed="13.89"/>
    <type id="47850572901_type" numLanes="3" speed="16.67"/>
    <type id="47850572902_type" numLanes="2" speed="16.67"/>
    <type id="47850573101_type" numLanes="3" speed="16.67"/>
    <type id="47850573102_type" numLanes="2" speed="16.67"/>
    <type id="47850573701_type" numLanes="3" speed="13.89"/>
    <type id="47850573702_type" numLanes="3" speed="13.89"/>
    <type id="47850574201_type" numLanes="3" speed="13.89"/>
    <type id="47850574202_type" numLanes="3" speed="13.89"/>
    <type id="47850581701_type" numLanes="5" speed="19.44"/>
    <type id="47850581702_type" numLanes="5" speed="19.44"/>
    <type id="47850581801_type" numLanes="5" speed="19.44"/>
    <type id="47850581802_type" numLanes="5" speed="19.44"/>
    <type id="47850584901_type" numLanes="5" speed="19.44"/>
    <type id="47850584902_type" numLanes="5" speed="19.44"/>
    <type id="47850586101_type" numLanes="5" speed="19.44"/>
    <type id="47850586102_type" numLanes="5" speed="19.44"/>
    <type id="47850592101_type" numLanes="4" speed="19.44"/>
    <type id="47850592102_type" numLanes="4" speed="19.44"/>
    <type id="47850595701_type" numLanes="5" speed="16.67"/>
    <type id="47850595702_type" numLanes="4" speed="16.67"/>
    <type id="47850595901_type" numLanes="5" speed="19.44"/>
    <type id="47850595902_type" numLanes="5" speed="19.44"/>
    <type id="47850596001_type" numLanes="2" speed="11.11"/>
    <type id="47850605001_type" numLanes="5" speed="22.22"/>
    <type id="47850605002_type" numLanes="5" speed="22.22"/>
    <type id="47850606501_type" numLanes="5" speed="19.44"/>
    <type id="47850606502_type" numLanes="5" speed="19.44"/>
    <type id="47850613001_type" numLanes="5" speed="19.44"/>
    <type id="47850613002_type" numLanes="5" speed="19.44"/>
    <type id="47850614301_type" numLanes="5" speed="22.22"/>
    <type id="47850614302_type" numLanes="5" speed="22.22"/>
    <type id="47850619301_type" numLanes="5" speed="22.22"/>
    <type id="47850619302_type" numLanes="5" speed="22.22"/>
    <type id="47850624601_type" numLanes="5" speed="22.22"/>
    <type id="47850624602_type" numLanes="5" speed="22.22"/>
    <type id="47850642301_type" numLanes="5" speed="22.22"/>