<?xml version="1.0" encoding="UTF-8"?>

<!-- generated on 2022-10-19 18:04:40 by Eclipse SUMO netedit Version 1.14.1
<configuration xmlns:xsi="http://www.w3.org/2001/XMLSchema-instance" xsi:noNamespaceSchemaLocation="http://sumo.dlr.de/xsd/netconvertConfiguration.xsd">

    <input>
        <sumo-net-file value="anyang9_4.net.xml"/>
    </input>

    <output>
        <output-file value="anyang9_4.net.xml"/>
        <output.street-names value="true"/>
    </output>

    <processing>
        <geometry.min-radius.fix.railways value="false"/>
        <geometry.max-grade.fix value="false"/>
        <offset.disable-normalization value="true"/>
        <lefthand value="false"/>
    </processing>

    <building_defaults>
        <default.spreadtype value="roadCenter"/>
    </building_defaults>

    <junctions>
        <no-turnarounds value="true"/>
        <junctions.corner-detail value="5"/>
        <junctions.limit-turn-speed value="5.5"/>
        <rectangular-lane-cut value="false"/>
    </junctions>

    <pedestrian>
        <walkingareas value="false"/>
    </pedestrian>

</configuration>
-->

<net version="1.9" spreadType="roadCenter" junctionCornerDetail="5" limitTurnSpeed="5.50" xmlns:xsi="http://www.w3.org/2001/XMLSchema-instance" xsi:noNamespaceSchemaLocation="http://sumo.dlr.de/xsd/net_file.xsd">

    <location netOffset="-317911.60,-4138261.42" convBoundary="202.80,259.06,3215.04,2878.17" origBoundary="126.943110,37.373474,126.979235,37.399480" projParameter="+proj=utm +zone=52 +ellps=WGS84 +datum=WGS84 +units=m +no_defs"/>

    <type id="478502899_01_type" numLanes="1" speed="13.89"/>
    <type id="478502899_02_type" numLanes="1" speed="13.89"/>
    <type id="478502910_01_type" numLanes="1" speed="13.89"/>
    <type id="478502910_02_type" numLanes="1" speed="13.89"/>
    <type id="478502912_01_type" numLanes="1" speed="13.89"/>
    <type id="478502912_02_type" numLanes="1" speed="13.89"/>
    <type id="478502913_01_type" numLanes="1" speed="13.89"/>
    <type id="478502913_02_type" numLanes="1" speed="13.89"/>
    <type id="478502942_01_type" numLanes="2" speed="13.89"/>
    <type id="478502942_02_type" numLanes="2" speed="13.89"/>
    <type id="478503058_01_type" numLanes="1" speed="13.89"/>
    <type id="478503058_02_type" numLanes="1" speed="13.89"/>
    <type id="478503062_01_type" numLanes="1" speed="13.89"/>
    <type id="478503062_02_type" numLanes="1" speed="13.89"/>
    <type id="478503063_01_type" numLanes="1" speed="13.89"/>
    <type id="478503063_02_type" numLanes="1" speed="13.89"/>
    <type id="478503070_01_type" numLanes="1" speed="13.89"/>
    <type id="478503070_02_type" numLanes="1" speed="13.89"/>
    <type id="478503072_01_type" numLanes="1" speed="13.89"/>
    <type id="478503072_02_type" numLanes="1" speed="13.89"/>
    <type id="478503077_01_01_type" numLanes="1" speed="13.89"/>
    <type id="478503077_01_02_type" numLanes="1" speed="13.89"/>
    <type id="478503077_02_01_type" numLanes="1" speed="13.89"/>
    <type id="478503155_01_type" numLanes="1" speed="11.11"/>
    <type id="478503155_02_type" numLanes="1" speed="11.11"/>
    <type id="478503420_01_type" numLanes="2" speed="13.89"/>
    <type id="478503420_02_type" numLanes="1" speed="13.89"/>
    <type id="478503586_01_01_type" numLanes="1" speed="13.89"/>
    <type id="478503586_01_02_type" numLanes="1" speed="13.89"/>
    <type id="478503586_02_01_type" numLanes="2" speed="13.89"/>
    <type id="478503586_02_02_type" numLanes="2" speed="13.89"/>
    <type id="478503678_01_01_type" numLanes="2" speed="13.89"/>
    <type id="478503678_01_02_type" numLanes="3" speed="13.89"/>
    <type id="478503678_0201_01_type" numLanes="3" speed="13.89"/>
    <type id="478503678_0201_02_type" numLanes="2" speed="13.89"/>
    <type id="478503678_020201_01_type" numLanes="3" speed="13.89"/>
    <type id="478503678_020201_02_type" numLanes="3" speed="13.89"/>
    <type id="478503678_020202_01_type" numLanes="3" speed="13.89"/>
    <type id="478503678_020202_02_type" numLanes="2" speed="13.89"/>
    <type id="478503679_01_01_type" numLanes="2" speed="13.89"/>
    <type id="478503679_01_02_type" numLanes="3" speed="13.89"/>
    <type id="478503679_02_01_type" numLanes="3" speed="13.89"/>
    <type id="478503679_02_02_type" numLanes="2" speed="13.89"/>
    <type id="478503680_01_01_type" numLanes="2" speed="13.89"/>
    <type id="478503680_01_02_type" numLanes="2" speed="13.89"/>
    <type id="478503680_02_01_type" numLanes="3" speed="13.89"/>
    <type id="478503680_02_02_type" numLanes="2" speed="13.89"/>
    <type id="478503692_01_01_type" numLanes="2" speed="13.89"/>
    <type id="478503692_01_02_type" numLanes="2" speed="13.89"/>
    <type id="478503692_02_01_type" numLanes="2" speed="13.89"/>
    <type id="478503692_02_02_type" numLanes="2" speed="13.89"/>
    <type id="478503693_01_01_type" numLanes="2" speed="13.89"/>
    <type id="478503693_01_02_type" numLanes="2" speed="13.89"/>
    <type id="478503693_02_01_type" numLanes="3" speed="13.89"/>
    <type id="478503693_02_02_type" numLanes="2" speed="13.89"/>
    <type id="478503694_01_01_type" numLanes="2" speed="13.89"/>
    <type id="478503694_01_02_type" numLanes="2" speed="13.89"/>
    <type id="478503694_02_01_type" numLanes="2" speed="13.89"/>
    <type id="478503694_02_02_type" numLanes="2" speed="13.89"/>
    <type id="478503695_01_type" numLanes="2" speed="16.67"/>
    <type id="478503695_02_type" numLanes="2" speed="16.67"/>
    <type id="478503698_01_type" numLanes="3" speed="19.44"/>
    <type id="478503698_02_type" numLanes="2" speed="19.44"/>
    <type id="478503752_01_01_type" numLanes="2" speed="13.89"/>
    <type id="478503752_01_02_type" numLanes="3" speed="13.89"/>
    <type id="478503752_02_01_type" numLanes="2" speed="13.89"/>
    <type id="478503752_02_02_type" numLanes="3" speed="13.89"/>
    <type id="478503763_01_01_type" numLanes="2" speed="13.89"/>
    <type id="478503763_01_02_type" numLanes="3" speed="13.89"/>
    <type id="478503763_020101_01_type" numLanes="3" speed="13.89"/>
    <type id="478503763_020101_02_type" numLanes="2" speed="13.89"/>
    <type id="478503763_020102_01_type" numLanes="2" speed="13.89"/>
    <type id="478503763_020102_02_type" numLanes="3" speed="13.89"/>
    <type id="478503763_0202_01_type" numLanes="3" speed="13.89"/>
    <type id="478503763_0202_02_type" numLanes="2" speed="13.89"/>
    <type id="478503829_0101_01_type" numLanes="2" speed="13.89"/>
    <type id="478503829_0101_02_type" numLanes="3" speed="13.89"/>
    <type id="478503829_0102_01_type" numLanes="2" speed="13.89"/>
    <type id="478503829_0102_02_type" numLanes="4" speed="13.89"/>
    <type id="478503829_02_01_type" numLanes="3" speed="13.89"/>
    <type id="478503829_02_02_type" numLanes="2" speed="13.89"/>
    <type id="478503830_01_type" numLanes="4" speed="13.89"/>
    <type id="478503830_02_type" numLanes="2" speed="13.89"/>
    <type id="478503842_01_01_type" numLanes="2" speed="13.89"/>
    <type id="478503842_01_02_type" numLanes="2" speed="13.89"/>
    <type id="478503842_02_01_type" numLanes="3" speed="13.89"/>
    <type id="478503842_02_02_type" numLanes="2" speed="13.89"/>
    <type id="478503844_01_01_type" numLanes="3" speed="13.89"/>
    <type id="478503844_01_02_type" numLanes="3" speed="13.89"/>
    <type id="478503844_02_01_type" numLanes="3" speed="13.89"/>
    <type id="478503844_02_02_type" numLanes="2" speed="13.89"/>
    <type id="478503944_01_type" numLanes="3" speed="16.67"/>
    <type id="478503944_02_type" numLanes="3" speed="16.67"/>
    <type id="478504067_01_01_type" numLanes="2" speed="13.89"/>
    <type id="478504067_01_02_type" numLanes="4" speed="13.89"/>
    <type id="478504067_02_01_type" numLanes="3" speed="13.89"/>
    <type id="478504067_02_02_type" numLanes="3" speed="13.89"/>
    <type id="478504724_01_type" numLanes="3" speed="13.89"/>
    <type id="478504724_02_type" numLanes="5" speed="13.89"/>
    <type id="478504734_01_01_type" numLanes="5" speed="13.89"/>
    <type id="478504734_01_02_type" numLanes="4" speed="13.89"/>
    <type id="478504734_02_01_type" numLanes="5" speed="13.89"/>
    <type id="478504734_02_02_type" numLanes="4" speed="13.89"/>
    <type id="478504739_01_type" numLanes="4" speed="13.89"/>
    <type id="478504739_02_type" numLanes="5" speed="13.89"/>
    <type id="478504742_01_type" numLanes="5" speed="16.67"/>
    <type id="478504742_02_type" numLanes="4" speed="16.67"/>
    <type id="478504747_01_type" numLanes="4" speed="13.89"/>
    <type id="478504747_02_type" numLanes="5" speed="13.89"/>
    <type id="478504758_01010101_01_type" numLanes="3" speed="13.89"/>
    <type id="478504758_01010101_02_type" numLanes="5" speed="13.89"/>
    <type id="478504758_01010102_01_type" numLanes="3" speed="13.89"/>
    <type id="478504758_01010102_02_type" numLanes="4" speed="13.89"/>
    <type id="478504758_010102_01_type" numLanes="4" speed="13.89"/>
    <type id="478504758_010102_02_type" numLanes="5" speed="13.89"/>
    <type id="478504758_0102_01_type" numLanes="4" speed="13.89"/>
    <type id="478504758_0102_02_type" numLanes="3" speed="13.89"/>
    <type id="478504758_02_01_type" numLanes="5" speed="13.89"/>
    <type id="478504758_02_02_type" numLanes="3" speed="13.89"/>
    <type id="478504762_01_type" numLanes="4" speed="19.44"/>
    <type id="478504762_02_type" numLanes="5" speed="19.44"/>
    <type id="478504764_01_type" numLanes="3" speed="13.89"/>
    <type id="478504764_02_type" numLanes="5" speed="13.89"/>
    <type id="478504769_01_type" numLanes="3" speed="13.89"/>
    <type id="478504769_02_type" numLanes="5" speed="13.89"/>
    <type id="478504770_01_type" numLanes="3" speed="19.44"/>
    <type id="478504770_02_type" numLanes="5" speed="19.44"/>
    <type id="478504782_01_type" numLanes="4" speed="13.89"/>
    <type id="478504782_02_type" numLanes="5" speed="13.89"/>
    <type id="478504794_01_01_type" numLanes="3" speed="13.89"/>
    <type id="478504794_01_02_type" numLanes="5" speed="13.89"/>
    <type id="478504794_02_01_type" numLanes="4" speed="13.89"/>
    <type id="478504794_02_02_type" numLanes="3" speed="13.89"/>
    <type id="478504810_01_type" numLanes="3" speed="13.89"/>
    <type id="478504810_02_type" numLanes="4" speed="13.89"/>
    <type id="478504820_01_type" numLanes="4" speed="13.89"/>
    <type id="478504820_02_type" numLanes="4" speed="13.89"/>
    <type id="478504828_01_type" numLanes="5" speed="13.89"/>
    <type id="478504828_02_type" numLanes="4" speed="13.89"/>
    <type id="478504833_01_type" numLanes="5" speed="16.67"/>
    <type id="478504833_02_type" numLanes="3" speed="16.67"/>
    <type id="478504844_01_type" numLanes="3" speed="16.67"/>
    <type id="478504844_02_type" numLanes="3" speed="16.67"/>
    <type id="478504866_01_type" numLanes="5" speed="16.67"/>
    <type id="478504866_02_type" numLanes="6" speed="16.67"/>
    <type id="478505011_01_type" numLanes="4" speed="19.44"/>
    <type id="478505011_02_type" numLanes="5" speed="19.44"/>
    <type id="478505014_01_01_type" numLanes="4" speed="13.89"/>
    <type id="478505014_01_02_type" numLanes="5" speed="13.89"/>
    <type id="478505014_02_01_type" numLanes="5" speed="13.89"/>
    <type id="478505014_02_02_type" numLanes="4" speed="13.89"/>
    <type id="478505016_01_type" numLanes="5" speed="13.89"/>
    <type id="478505016_02_type" numLanes="4" speed="13.89"/>
    <type id="478505094_01_type" numLanes="3" speed="13.89"/>
    <type id="478505094_02_type" numLanes="5" speed="13.89"/>
    <type id="478505119_01_type" numLanes="3" speed="13.89"/>
    <type id="478505119_02_type" numLanes="5" speed="13.89"/>
    <type id="478505121_01_type" numLanes="4" speed="13.89"/>
    <type id="478505121_02_type" numLanes="6" speed="13.89"/>
    <type id="478505131_01_type" numLanes="3" speed="13.89"/>
    <type id="478505131_02_type" numLanes="5" speed="13.89"/>
    <type id="478505133_01_type" numLanes="5" speed="16.67"/>
    <type id="478505133_02_type" numLanes="3" speed="16.67"/>
    <type id="478505157_01_type" numLanes="1" speed="13.89"/>
    <type id="478505158_01_type" numLanes="1" speed="8.33"/>
    <type id="478505168_01_type" numLanes="1" speed="13.89"/>
    <type id="478505169_01_type" numLanes="1" speed="8.33"/>
    <type id="478505204_01_type" numLanes="4" speed="13.89"/>
    <type id="478505204_02_type" numLanes="5" speed="13.89"/>
    <type id="478505344_01_type" numLanes="5" speed="16.67"/>
    <type id="478505344_02_type" numLanes="4" speed="16.67"/>
    <type id="478505345_01_type" numLanes="4" speed="13.89"/>
    <type id="478505345_02_type" numLanes="5" speed="13.89"/>
    <type id="478505355_01_type" numLanes="5" speed="16.67"/>
    <type id="478505355_02_type" numLanes="6" speed="16.67"/>
    <type id="478505369_01_type" numLanes="1" speed="11.11"/>
    <type id="478505370_01_type" numLanes="1" speed="11.11"/>
    <type id="478505428_01_01_type" numLanes="5" speed="13.89"/>
    <type id="478505428_01_02_type" numLanes="5" speed="13.89"/>
    <type id="478505428_02_01_type" numLanes="5" speed="13.89"/>
    <type id="478505428_02_02_type" numLanes="6" speed="13.89"/>
    <type id="478505569_01_type" numLanes="3" speed="13.89"/>
    <type id="478505579_01_type" numLanes="4" speed="13.89"/>
    <type id="478505579_02_type" numLanes="4" speed="13.89"/>
    <type id="478505621_01_type" numLanes="3" speed="19.44"/>
    <type id="478505621_02_type" numLanes="5" speed="19.44"/>
    <type id="478505622_01_type" numLanes="3" speed="16.67"/>
    <type id="478505622_02_type" numLanes="3" speed="16.67"/>
    <type id="478505627_01010101_01_type" numLanes="3" speed="13.89"/>
    <type id="478505627_01010101_02_type" numLanes="4" speed="13.89"/>
    <type id="478505627_01010102_01_type" numLanes="3" speed="13.89"/>
    <type id="478505627_01010102_02_type" numLanes="4" speed="13.89"/>
    <type id="478505627_010102_01_type" numLanes="4" speed="13.89"/>
    <type id="478505627_010102_02_type" numLanes="3" speed="13.89"/>
    <type id="478505627_0102_01_type" numLanes="4" speed="13.89"/>
    <type id="478505627_0102_02_type" numLanes="3" speed="13.89"/>
    <type id="478505627_02_01_type" numLanes="5" speed="13.89"/>
    <type id="478505627_02_02_type" numLanes="3" speed="13.89"/>
    <type id="478505639_01_type" numLanes="3" speed="13.89"/>
    <type id="478505639_02_type" numLanes="5" speed="13.89"/>
    <type id="478505960_01_type" numLanes="2" speed="11.11"/>
    <type id="478506143_01_type" numLanes="5" speed="22.22"/>
    <type id="478506143_02_type" numLanes="7" speed="22.22"/>
    <type id="478506193_01_type" numLanes="5" speed="22.22"/>
    <type id="478506193_02_type" numLanes="6" speed="22.22"/>
    <type id="478510280_01_type" numLanes="1" speed="13.89"/>
    <type id="478510282_01_type" numLanes="5" speed="13.89"/>
    <type id="478510282_02_type" numLanes="6" speed="13.89"/>
    <type id="478510284_01_type" numLanes="4" speed="16.67"/>
    <type id="478510284_02_type" numLanes="4" speed="16.67"/>
    <type id="478510285_01_type" numLanes="3" speed="16.67"/>
    <type id="478510285_02_type" numLanes="5" speed="16.67"/>
    <type id="478510451_01_type" numLanes="6" speed="19.44"/>
    <type id="478510451_02_type" numLanes="6" speed="19.44"/>
    <type id="478510458_01_type" numLanes="6" speed="19.44"/>
    <type id="478510458_02_type" numLanes="5" speed="19.44"/>
    <type id="478510647_01_type" numLanes="1" speed="11.11"/>
    <type id="478510647_02_type" numLanes="1" speed="11.11"/>
    <type id="478510666_01_type" numLanes="1" speed="11.11"/>
    <type id="478510666_02_type" numLanes="1" speed="11.11"/>
    <type id="478510680_01_type" numLanes="1" speed="11.11"/>
    <type id="478510680_02_type" numLanes="2" speed="11.11"/>
    <type id="478510681_01_type" numLanes="1" speed="13.89"/>
    <type id="478510681_02_type" numLanes="1" speed="13.89"/>
    <type id="478510944_01_type" numLanes="1" speed="11.11"/>
    <type id="478510944_02_type" numLanes="1" speed="11.11"/>
    <type id="478511046_01_type" numLanes="1" speed="11.11"/>
    <type id="478511046_02_type" numLanes="1" speed="11.11"/>
    <type id="478511058_01_type" numLanes="1" speed="13.89"/>
    <type id="478511058_02_type" numLanes="1" speed="13.89"/>
    <type id="478511366_01_type" numLanes="1" speed="13.89"/>
    <type id="478511366_02_type" numLanes="1" speed="13.89"/>
    <type id="478511418_01_type" numLanes="5" speed="13.89"/>
    <type id="478511418_02_type" numLanes="6" speed="13.89"/>
    <type id="478511426_01_type" numLanes="1" speed="13.89"/>
    <type id="478511426_02_type" numLanes="1" speed="13.89"/>
    <type id="478511463_01_01_type" numLanes="3" speed="13.89"/>
    <type id="478511463_01_02_type" numLanes="2" speed="13.89"/>
    <type id="478511463_02_01_type" numLanes="4" speed="13.89"/>
    <type id="478511463_02_02_type" numLanes="2" speed="13.89"/>
    <type id="478511538_01_01_type" numLanes="6" speed="13.89"/>
    <type id="478511538_01_02_type" numLanes="6" speed="13.89"/>
    <type id="478511538_02_01_type" numLanes="7" speed="13.89"/>
    <type id="478511538_02_02_type" numLanes="6" speed="13.89"/>
    <type id="478511550_01_type" numLanes="1" speed="11.11"/>
    <type id="478511550_02_type" numLanes="1" speed="11.11"/>
    <type id="478511556_01_type" numLanes="1" speed="11.11"/>
    <type id="478511556_02_type" numLanes="1" speed="11.11"/>
    <type id="478511561_01_type" numLanes="1" speed="13.89"/>
    <type id="478511561_02_type" numLanes="1" speed="13.89"/>
    <type id="478511565_01_01_type" numLanes="1" speed="13.89"/>
    <type id="478511565_01_02_type" numLanes="1" speed="13.89"/>
    <type id="478511565_02_01_type" numLanes="2" speed="13.89"/>
    <type id="478511565_02_02_type" numLanes="2" speed="13.89"/>
    <type id="478511569_01_type" numLanes="1" speed="11.11"/>
    <type id="478511569_02_type" numLanes="1" speed="11.11"/>
    <type id="478511570_01_type" numLanes="1" speed="13.89"/>
    <type id="478511624_01_01_type" numLanes="6" speed="13.89"/>
    <type id="478511624_01_02_type" numLanes="6" speed="13.89"/>
    <type id="478511624_0201_01_type" numLanes="7" speed="13.89"/>
    <type id="478511624_0201_02_type" numLanes="6" speed="13.89"/>
    <type id="478511624_0202_01_type" numLanes="6" speed="13.89"/>
    <type id="478511624_0202_02_type" numLanes="6" speed="13.89"/>
    <type id="478511625_01_01_type" numLanes="2" speed="13.89"/>
    <type id="478511625_01_02_type" numLanes="3" speed="13.89"/>
    <type id="478511625_0201_01_type" numLanes="3" speed="13.89"/>
    <type id="478511625_0201_02_type" numLanes="4" speed="13.89"/>
    <type id="478511625_0202_01_type" numLanes="3" speed="13.89"/>
    <type id="478511625_0202_02_type" numLanes="2" speed="13.89"/>
    <type id="478511635_01_type" numLanes="1" speed="13.89"/>
    <type id="478511638_01_01_type" numLanes="3" speed="13.89"/>
    <type id="478511638_01_02_type" numLanes="2" speed="13.89"/>
    <type id="478511638_0201_01_type" numLanes="3" speed="13.89"/>
    <type id="478511638_0201_02_type" numLanes="3" speed="13.89"/>
    <type id="478511638_0202_01_type" numLanes="3" speed="13.89"/>
    <type id="478511638_0202_02_type" numLanes="2" speed="13.89"/>
    <type id="478511652_01_type" numLanes="5" speed="22.22"/>
    <type id="478511652_02_type" numLanes="6" speed="22.22"/>
    <type id="478511654_01_type" numLanes="6" speed="22.22"/>
    <type id="478511654_02_type" numLanes="6" speed="22.22"/>
    <type id="478511662_01_type" numLanes="1" speed="11.11"/>
    <type id="478511662_02_type" numLanes="1" speed="11.11"/>
    <type id="478511667_01_type" numLanes="4" speed="16.67"/>
    <type id="478511667_02_type" numLanes="3" speed="16.67"/>
    <type id="478511668_01_type" numLanes="1" speed="11.11"/>
    <type id="478511668_02_type" numLanes="1" speed="11.11"/>
    <type id="478511675_01_type" numLanes="1" speed="13.89"/>
    <type id="478511675_02_type" numLanes="1" speed="13.89"/>
    <type id="478511677_01_type" numLanes="3" speed="11.11"/>
    <type id="478511677_02_type" numLanes="4" speed="11.11"/>
    <type id="478511681_01_type" numLanes="1" speed="13.89"/>
    <type id="478511681_02_type" numLanes="1" speed="13.89"/>
    <type id="478511685_01_type" numLanes="1" speed="11.11"/>
    <type id="478511685_02_type" numLanes="1" speed="11.11"/>
    <type id="478511687_01_type" numLanes="1" speed="11.11"/>
    <type id="478511687_02_type" numLanes="1" speed="11.11"/>
    <type id="478513491_01_type" numLanes="1" speed="13.89"/>
    <type id="478513491_02_type" numLanes="1" speed="13.89"/>
    <type id="478540013_01_type" numLanes="4" speed="27.78"/>
    <type id="478540051_01_type" numLanes="1" speed="13.89"/>
    <type id="478540051_02_type" numLanes="1" speed="13.89"/>
    <type id="478540099_01_type" numLanes="4" speed="27.78"/>
    <type id="478540100_01_type" numLanes="4" speed="27.78"/>
    <type id="478540460_01_type" numLanes="1" speed="13.89"/>
    <type id="478540460_02_type" numLanes="1" speed="13.89"/>
    <type id="478541758_01_type" numLanes="1" speed="13.89"/>
    <type id="478541760_01_type" numLanes="1" speed="13.89"/>
    <type id="478541762_01_type" numLanes="1" speed="13.89"/>
    <type id="478541763_01_type" numLanes="1" speed="13.89"/>
    <type id="478541763_02_type" numLanes="1" speed="13.89"/>
    <type id="478541797_01_type" numLanes="1" speed="13.89"/>
    <type id="478541797_02_type" numLanes="1" speed="13.89"/>
    <type id="478541801_01_type" numLanes="1" speed="13.89"/>
    <type id="478541801_02_type" numLanes="1" speed="13.89"/>
    <type id="478541808_01_type" numLanes="1" speed="13.89"/>
    <type id="478541808_02_type" numLanes="1" speed="13.89"/>
    <type id="478542820_01_type" numLanes="1" speed="11.11"/>
    <type id="478542820_02_type" numLanes="1" speed="11.11"/>
    <type id="478542829_01_type" numLanes="1" speed="13.89"/>
    <type id="478542829_02_type" numLanes="1" speed="13.89"/>
    <type id="478542860_01_type" numLanes="1" speed="13.89"/>
    <type id="478542860_02_type" numLanes="1" speed="13.89"/>
    <type id="478542957_01_type" numLanes="5" speed="16.67"/>
    <type id="478542957_02_type" numLanes="4" speed="16.67"/>
    <type id="478542958_01_type" numLanes="4" speed="13.89"/>
    <type id="478542958_02_type" numLanes="5" speed="13.89"/>
    <type id="478543323_01_type" numLanes="3" speed="11.11"/>
    <type id="478543327_01_type" numLanes="1" speed="11.11"/>
    <type id="478543329_01_type" numLanes="1" speed="11.11"/>
    <type id="478543331_01_type" numLanes="1" speed="11.11"/>
    <type id="478543333_01_type" numLanes="2" speed="11.11"/>
    <type id="478543335_01_type" numLanes="4" speed="16.67"/>
    <type id="478543335_02_type" numLanes="3" speed="16.67"/>
    <type id="478543342_01_type" numLanes="4" speed="11.11"/>
    <type id="478543342_02_type" numLanes="4" speed="11.11"/>
    <type id="478543347_01_type" numLanes="3" speed="11.11"/>
    <type id="478543349_01_type" numLanes="3" speed="11.11"/>
    <type id="478543363_01_type" numLanes="3" speed="11.11"/>
    <type id="478543365_01_type" numLanes="1" speed="13.89"/>
    <type id="478543365_02_type" numLanes="1" speed="13.89"/>
    <type id="478543367_01_type" numLanes="3" speed="11.11"/>
    <type id="478543371_01_type" numLanes="4" speed="13.89"/>
    <type id="478543371_02_type" numLanes="3" speed="13.89"/>
    <type id="478543800_01_type" numLanes="1" speed="11.11"/>
    <type id="478543801_01_type" numLanes="1" speed="11.11"/>
    <type id="478543802_01_type" numLanes="5" speed="11.11"/>
    <type id="478543804_01_type" numLanes="3" speed="11.11"/>
    <type id="478543805_01_type" numLanes="3" speed="11.11"/>
    <type id="478543806_01_type" numLanes="4" speed="11.11"/>
    <type id="478543808_01_type" numLanes="3" speed="11.11"/>
    <type id="478543809_01_type" numLanes="3" speed="11.11"/>
    <type id="478543944_01_type" numLanes="1" speed="13.89"/>
    <type id="478543946_01_type" numLanes="2" speed="16.67"/>
    <type id="478543946_02_type" numLanes="2" speed="16.67"/>
    <type id="478543979_01_type" numLanes="5" speed="19.44"/>
    <type id="478543979_02_type" numLanes="4" speed="19.44"/>
    <type id="478543980_01_type" numLanes="4" speed="8.33"/>
    <type id="478543980_02_type" numLanes="5" speed="8.33"/>
    <type id="478543981_01_type" numLanes="5" speed="13.89"/>
    <type id="478543981_02_type" numLanes="4" speed="13.89"/>
    <type id="478543982_01_type" numLanes="4" speed="8.33"/>
    <type id="478543982_02_type" numLanes="5" speed="8.33"/>
    <type id="478543983_01_type" numLanes="5" speed="16.67"/>
    <type id="478543983_02_type" numLanes="5" speed="16.67"/>
    <type id="478543984_01_type" numLanes="4" speed="13.89"/>
    <type id="478543984_02_type" numLanes="5" speed="13.89"/>
    <type id="478543987_01_type" numLanes="6" speed="8.33"/>
    <type id="478543987_02_type" numLanes="5" speed="8.33"/>
    <type id="478543996_01_type" numLanes="2" speed="22.22"/>
    <type id="478543996_02_type" numLanes="2" speed="22.22"/>
    <type id="478544155_01_type" numLanes="6" speed="22.22"/>
    <type id="478544155_02_type" numLanes="6" speed="22.22"/>
    <type id="478544167_01_type" numLanes="4" speed="16.67"/>
    <type id="478544167_02_type" numLanes="3" speed="16.67"/>
    <type id="478544180_01_type" numLanes="7" speed="19.44"/>
    <type id="478544180_02_type" numLanes="6" speed="19.44"/>
    <type id="478545239_01_type" numLanes="2" speed="13.89"/>
    <type id="478545239_02_type" numLanes="3" speed="13.89"/>
    <type id="478545304_01_type" numLanes="5" speed="13.89"/>
    <type id="478545304_02_type" numLanes="5" speed="13.89"/>
    <type id="478545349_01_type" numLanes="1" speed="13.89"/>
    <type id="478545349_02_type" numLanes="1" speed="13.89"/>
    <type id="478545350_01_type" numLanes="2" speed="13.89"/>
    <type id="478545350_02_type" numLanes="1" speed="13.89"/>
    <type id="478545351_01_type" numLanes="1" speed="13.89"/>
    <type id="478545351_02_type" numLanes="1" speed="13.89"/>
    <type id="478545352_01_01_type" numLanes="5" speed="13.89"/>
    <type id="478545352_01_02_type" numLanes="6" speed="13.89"/>
    <type id="478545352_02_01_type" numLanes="5" speed="13.89"/>
    <type id="478545352_02_02_type" numLanes="5" speed="13.89"/>
    <type id="478545753_01_type" numLanes="5" speed="27.78"/>
    <type id="478545755_01_01_type" numLanes="4" speed="13.89"/>
    <type id="478545755_0201_01_type" numLanes="5" speed="13.89"/>
    <type id="478545755_0202_01_type" numLanes="6" speed="13.89"/>
    <type id="478545806_01_type" numLanes="1" speed="13.89"/>
    <type id="478545807_01_type" numLanes="1" speed="13.89"/>
    <type id="478545815_01_type" numLanes="1" speed="13.89"/>
    <type id="478545816_01_type" numLanes="3" speed="13.89"/>
    <type id="478545816_02_type" numLanes="5" speed="13.89"/>
    <type id="478545817_01_type" numLanes="5" speed="13.89"/>
    <type id="478545817_02_type" numLanes="4" speed="13.89"/>
    <type id="478545818_01_type" numLanes="2" speed="11.11"/>
    <type id="478545819_01_type" numLanes="3" speed="11.11"/>
    <type id="478545822_01_type" numLanes="1" speed="13.89"/>
    <type id="478545823_01_type" numLanes="1" speed="13.89"/>
    <type id="478545845_01_type" numLanes="1" speed="11.11"/>
    <type id="478545845_02_type" numLanes="1" speed="11.11"/>
    <type id="478545895_01_type" numLanes="1" speed="13.89"/>
    <type id="478545895_02_type" numLanes="2" speed="13.89"/>
    <type id="478545896_0101_01_type" numLanes="3" speed="13.89"/>
    <type id="478545896_0101_02_type" numLanes="4" speed="13.89"/>
    <type id="478545896_0102_01_type" numLanes="4" speed="13.89"/>
    <type id="478545896_0102_02_type" numLanes="4" speed="13.89"/>
    <type id="478545896_02_01_type" numLanes="3" speed="13.89"/>
    <type id="478545896_02_02_type" numLanes="4" speed="13.89"/>
    <type id="478545897_01_type" numLanes="4" speed="16.67"/>
    <type id="478545897_02_type" numLanes="3" speed="16.67"/>
    <type id="478545909_01_type" numLanes="1" speed="13.89"/>
    <type id="478545909_02_type" numLanes="1" speed="13.89"/>
    <type id="478546072_01_type" numLanes="4" speed="27.78"/>
    <type id="478547596_01_type" numLanes="5" speed="13.89"/>
    <type id="478547596_02_type" numLanes="5" speed="13.89"/>
    <type id="478547843_01_type" numLanes="5" speed="19.44"/>
    <type id="478547843_02_type" numLanes="6" speed="19.44"/>
    <type id="478547960_01_type" numLanes="1" speed="13.89"/>
    <type id="478547966_01_type" numLanes="2" speed="13.89"/>
    <type id="478547966_02_type" numLanes="3" speed="13.89"/>
    <type id="478547968_01_type" numLanes="3" speed="13.89"/>
    <type id="478547968_02_type" numLanes="6" speed="13.89"/>
    <type id="478548486_01_type" numLanes="4" speed="16.67"/>
    <type id="478548486_02_type" numLanes="4" speed="16.67"/>
    <type id="478548516_01_type" numLanes="2" speed="13.89"/>
    <type id="478548700_01_type" numLanes="1" speed="13.89"/>
    <type id="478548706_01_type" numLanes="6" speed="22.22"/>
    <type id="478548706_02_type" numLanes="5" speed="22.22"/>
    <type id="478548876_01_type" numLanes="5" speed="22.22"/>
    <type id="478548876_02_type" numLanes="5" speed="22.22"/>
    <type id="478549086_01_type" numLanes="1" speed="13.89"/>
    <type id="478549086_02_type" numLanes="1" speed="13.89"/>
    <type id="478549087_01_type" numLanes="1" speed="13.89"/>
    <type id="478549087_02_type" numLanes="1" speed="13.89"/>
    <type id="478549088_01_type" numLanes="1" speed="13.89"/>
    <type id="478549088_02_type" numLanes="1" speed="13.89"/>
    <type id="478549176_01_type" numLanes="2" speed="13.89"/>
    <type id="478549176_02_type" numLanes="2" speed="13.89"/>
    <type id="478549177_01_type" numLanes="1" speed="13.89"/>
    <type id="478549177_02_type" numLanes="1" speed="13.89"/>
    <type id="478549179_01_type" numLanes="3" speed="13.89"/>
    <type id="478549179_02_type" numLanes="3" speed="13.89"/>