<routes>
  <vType id="passenger" vClass="passenger"/>
  <vType id="bus" vClass="bus"/>
  <vType id="truck" vClass="truck"/>
  <vType id="emergency" vClass="emergency"/>
  <vType id="motorcycle" vClass="motorcycle"/>
  <vType id="trailer" vClass="trailer"/>
</routes>